* NGSPICE file created from RAM128.ext - technology: sky130A

* Black-box entry subcircuit for sky130_fd_sc_hd__dlclkp_1 abstract view
.subckt sky130_fd_sc_hd__dlclkp_1 CLK GATE VGND VNB VPB VPWR GCLK
.ends

* Black-box entry subcircuit for sky130_fd_sc_hd__tapvpwrvgnd_1 abstract view
.subckt sky130_fd_sc_hd__tapvpwrvgnd_1 VGND VPWR
.ends

* Black-box entry subcircuit for sky130_fd_sc_hd__ebufn_2 abstract view
.subckt sky130_fd_sc_hd__ebufn_2 A TE_B VGND VNB VPB VPWR Z
.ends

* Black-box entry subcircuit for sky130_fd_sc_hd__clkbuf_4 abstract view
.subckt sky130_fd_sc_hd__clkbuf_4 A VGND VNB VPB VPWR X
.ends

* Black-box entry subcircuit for sky130_fd_sc_hd__dlxtp_1 abstract view
.subckt sky130_fd_sc_hd__dlxtp_1 D GATE VGND VNB VPB VPWR Q
.ends

* Black-box entry subcircuit for sky130_fd_sc_hd__and4bb_2 abstract view
.subckt sky130_fd_sc_hd__and4bb_2 A_N B_N C D VGND VNB VPB VPWR X
.ends

* Black-box entry subcircuit for sky130_fd_sc_hd__inv_1 abstract view
.subckt sky130_fd_sc_hd__inv_1 A VGND VNB VPB VPWR Y
.ends

* Black-box entry subcircuit for sky130_fd_sc_hd__dfxtp_1 abstract view
.subckt sky130_fd_sc_hd__dfxtp_1 CLK D VGND VNB VPB VPWR Q
.ends

* Black-box entry subcircuit for sky130_fd_sc_hd__and2_1 abstract view
.subckt sky130_fd_sc_hd__and2_1 A B VGND VNB VPB VPWR X
.ends

* Black-box entry subcircuit for sky130_fd_sc_hd__diode_2 abstract view
.subckt sky130_fd_sc_hd__diode_2 DIODE VGND VNB VPB VPWR
.ends

* Black-box entry subcircuit for sky130_fd_sc_hd__conb_1 abstract view
.subckt sky130_fd_sc_hd__conb_1 VGND VNB VPB VPWR HI LO
.ends

* Black-box entry subcircuit for sky130_fd_sc_hd__decap_8 abstract view
.subckt sky130_fd_sc_hd__decap_8 VGND VNB VPB VPWR
.ends

* Black-box entry subcircuit for sky130_fd_sc_hd__decap_12 abstract view
.subckt sky130_fd_sc_hd__decap_12 VGND VNB VPB VPWR
.ends

* Black-box entry subcircuit for sky130_fd_sc_hd__clkbuf_2 abstract view
.subckt sky130_fd_sc_hd__clkbuf_2 A VGND VNB VPB VPWR X
.ends

* Black-box entry subcircuit for sky130_fd_sc_hd__clkbuf_16 abstract view
.subckt sky130_fd_sc_hd__clkbuf_16 A VGND VNB VPB VPWR X
.ends

* Black-box entry subcircuit for sky130_fd_sc_hd__decap_4 abstract view
.subckt sky130_fd_sc_hd__decap_4 VGND VNB VPB VPWR
.ends

* Black-box entry subcircuit for sky130_fd_sc_hd__decap_6 abstract view
.subckt sky130_fd_sc_hd__decap_6 VGND VNB VPB VPWR
.ends

* Black-box entry subcircuit for sky130_fd_sc_hd__decap_3 abstract view
.subckt sky130_fd_sc_hd__decap_3 VGND VNB VPB VPWR
.ends

* Black-box entry subcircuit for sky130_fd_sc_hd__and4b_2 abstract view
.subckt sky130_fd_sc_hd__and4b_2 A_N B C D VGND VNB VPB VPWR X
.ends

* Black-box entry subcircuit for sky130_fd_sc_hd__mux4_1 abstract view
.subckt sky130_fd_sc_hd__mux4_1 A0 A1 A2 A3 S0 S1 VGND VNB VPB VPWR X
.ends

* Black-box entry subcircuit for sky130_fd_sc_hd__fill_2 abstract view
.subckt sky130_fd_sc_hd__fill_2 VGND VNB VPB VPWR
.ends

* Black-box entry subcircuit for sky130_fd_sc_hd__and4_2 abstract view
.subckt sky130_fd_sc_hd__and4_2 A B C D VGND VNB VPB VPWR X
.ends

* Black-box entry subcircuit for sky130_fd_sc_hd__nor4b_2 abstract view
.subckt sky130_fd_sc_hd__nor4b_2 A B C D_N VGND VNB VPB VPWR Y
.ends

* Black-box entry subcircuit for sky130_fd_sc_hd__nor3b_2 abstract view
.subckt sky130_fd_sc_hd__nor3b_2 A B C_N VGND VNB VPB VPWR Y
.ends

* Black-box entry subcircuit for sky130_fd_sc_hd__and3b_2 abstract view
.subckt sky130_fd_sc_hd__and3b_2 A_N B C VGND VNB VPB VPWR X
.ends

* Black-box entry subcircuit for sky130_fd_sc_hd__and3_2 abstract view
.subckt sky130_fd_sc_hd__and3_2 A B C VGND VNB VPB VPWR X
.ends

.subckt RAM128 A0[0] A0[1] A0[2] A0[3] A0[4] A0[5] A0[6] CLK Di0[0] Di0[10] Di0[11]
+ Di0[12] Di0[13] Di0[14] Di0[15] Di0[16] Di0[17] Di0[18] Di0[19] Di0[1] Di0[20] Di0[21]
+ Di0[22] Di0[23] Di0[24] Di0[25] Di0[26] Di0[27] Di0[28] Di0[29] Di0[2] Di0[30] Di0[31]
+ Di0[3] Di0[4] Di0[5] Di0[6] Di0[7] Di0[8] Di0[9] Do0[0] Do0[10] Do0[11] Do0[12]
+ Do0[13] Do0[14] Do0[15] Do0[16] Do0[17] Do0[18] Do0[19] Do0[1] Do0[20] Do0[21] Do0[22]
+ Do0[23] Do0[24] Do0[25] Do0[26] Do0[27] Do0[28] Do0[29] Do0[2] Do0[30] Do0[31] Do0[3]
+ Do0[4] Do0[5] Do0[6] Do0[7] Do0[8] Do0[9] EN0 VGND VPWR WE0[0] WE0[1] WE0[2] WE0[3]
XBLOCK\[3\].RAM32.SLICE\[3\].RAM8.WORD\[0\].W.BYTE\[0\].B.genblk1.CG BLOCK\[3\].RAM32.SLICE\[3\].RAM8.WORD\[0\].W.BYTE\[0\].B.genblk1.CG/CLK
+ BLOCK\[3\].RAM32.SLICE\[3\].RAM8.WORD\[0\].W.BYTE\[0\].B.CGAND/X VGND VGND VPWR
+ VPWR BLOCK\[3\].RAM32.SLICE\[3\].RAM8.WORD\[0\].W.BYTE\[0\].B.genblk1.CG/GCLK sky130_fd_sc_hd__dlclkp_1
Xtap_111_16 VGND VPWR sky130_fd_sc_hd__tapvpwrvgnd_1
Xtap_91_19 VGND VPWR sky130_fd_sc_hd__tapvpwrvgnd_1
XBLOCK\[2\].RAM32.SLICE\[0\].RAM8.WORD\[0\].W.BYTE\[0\].B.BIT\[3\].OBUF0 BLOCK\[2\].RAM32.SLICE\[0\].RAM8.WORD\[0\].W.BYTE\[0\].B.BIT\[3\].OBUF0/A
+ BLOCK\[2\].RAM32.SLICE\[0\].RAM8.WORD\[0\].W.BYTE\[0\].B.SEL0INV/Y VGND VGND VPWR
+ VPWR BLOCK\[2\].RAM32.BYTE\[0\].FLOATBUF0\[3\].cell/Z sky130_fd_sc_hd__ebufn_2
XBLOCK\[1\].RAM32.SLICE\[1\].RAM8.WORD\[7\].W.BYTE\[0\].B.BIT\[5\].OBUF0 BLOCK\[1\].RAM32.SLICE\[1\].RAM8.WORD\[7\].W.BYTE\[0\].B.BIT\[5\].OBUF0/A
+ BLOCK\[1\].RAM32.SLICE\[1\].RAM8.WORD\[7\].W.BYTE\[0\].B.SEL0INV/Y VGND VGND VPWR
+ VPWR BLOCK\[1\].RAM32.BYTE\[0\].FLOATBUF0\[5\].cell/Z sky130_fd_sc_hd__ebufn_2
Xtap_3_8 VGND VPWR sky130_fd_sc_hd__tapvpwrvgnd_1
XBLOCK\[0\].RAM32.SLICE\[2\].RAM8.WORD\[4\].W.BYTE\[2\].B.BIT\[4\].OBUF0 BLOCK\[0\].RAM32.SLICE\[2\].RAM8.WORD\[4\].W.BYTE\[2\].B.BIT\[4\].OBUF0/A
+ BLOCK\[0\].RAM32.SLICE\[2\].RAM8.WORD\[4\].W.BYTE\[2\].B.SEL0INV/Y VGND VGND VPWR
+ VPWR BLOCK\[0\].RAM32.BYTE\[2\].FLOATBUF0\[20\].cell/Z sky130_fd_sc_hd__ebufn_2
XBLOCK\[0\].RAM32.Do0_REG.Root_CLKBUF BLOCK\[0\].RAM32.CLKBUF.cell/X VGND VGND VPWR
+ VPWR BLOCK\[0\].RAM32.Do0_REG.Root_CLKBUF/X sky130_fd_sc_hd__clkbuf_4
Xtap_111_27 VGND VPWR sky130_fd_sc_hd__tapvpwrvgnd_1
XBLOCK\[2\].RAM32.SLICE\[1\].RAM8.WORD\[3\].W.BYTE\[1\].B.BIT\[4\].genblk1.STORAGE
+ BLOCK\[2\].RAM32.DIBUF\[12\].cell/X BLOCK\[2\].RAM32.SLICE\[1\].RAM8.WORD\[3\].W.BYTE\[1\].B.genblk1.CG/GCLK
+ VGND VGND VPWR VPWR BLOCK\[2\].RAM32.SLICE\[1\].RAM8.WORD\[3\].W.BYTE\[1\].B.BIT\[4\].OBUF0/A
+ sky130_fd_sc_hd__dlxtp_1
XBLOCK\[1\].RAM32.SLICE\[2\].RAM8.WORD\[7\].W.BYTE\[3\].B.BIT\[6\].genblk1.STORAGE
+ BLOCK\[1\].RAM32.DIBUF\[30\].cell/X BLOCK\[1\].RAM32.SLICE\[2\].RAM8.WORD\[7\].W.BYTE\[3\].B.genblk1.CG/GCLK
+ VGND VGND VPWR VPWR BLOCK\[1\].RAM32.SLICE\[2\].RAM8.WORD\[7\].W.BYTE\[3\].B.BIT\[6\].OBUF0/A
+ sky130_fd_sc_hd__dlxtp_1
Xtap_24_13 VGND VPWR sky130_fd_sc_hd__tapvpwrvgnd_1
Xtap_24_24 VGND VPWR sky130_fd_sc_hd__tapvpwrvgnd_1
Xtap_93_6 VGND VPWR sky130_fd_sc_hd__tapvpwrvgnd_1
Xtap_24_35 VGND VPWR sky130_fd_sc_hd__tapvpwrvgnd_1
Xtap_138_6 VGND VPWR sky130_fd_sc_hd__tapvpwrvgnd_1
Xtap_86_5 VGND VPWR sky130_fd_sc_hd__tapvpwrvgnd_1
XBLOCK\[2\].RAM32.SLICE\[0\].RAM8.WORD\[4\].W.BYTE\[3\].B.BIT\[0\].genblk1.STORAGE
+ BLOCK\[2\].RAM32.DIBUF\[24\].cell/X BLOCK\[2\].RAM32.SLICE\[0\].RAM8.WORD\[4\].W.BYTE\[3\].B.genblk1.CG/GCLK
+ VGND VGND VPWR VPWR BLOCK\[2\].RAM32.SLICE\[0\].RAM8.WORD\[4\].W.BYTE\[3\].B.BIT\[0\].OBUF0/A
+ sky130_fd_sc_hd__dlxtp_1
XBLOCK\[2\].RAM32.SLICE\[0\].RAM8.WORD\[4\].W.BYTE\[3\].B.BIT\[6\].OBUF0 BLOCK\[2\].RAM32.SLICE\[0\].RAM8.WORD\[4\].W.BYTE\[3\].B.BIT\[6\].OBUF0/A
+ BLOCK\[2\].RAM32.SLICE\[0\].RAM8.WORD\[4\].W.BYTE\[3\].B.SEL0INV/Y VGND VGND VPWR
+ VPWR BLOCK\[2\].RAM32.BYTE\[3\].FLOATBUF0\[30\].cell/Z sky130_fd_sc_hd__ebufn_2
Xtap_40_12 VGND VPWR sky130_fd_sc_hd__tapvpwrvgnd_1
XBLOCK\[3\].RAM32.SLICE\[1\].RAM8.WORD\[2\].W.BYTE\[0\].B.BIT\[0\].OBUF0 BLOCK\[3\].RAM32.SLICE\[1\].RAM8.WORD\[2\].W.BYTE\[0\].B.BIT\[0\].OBUF0/A
+ BLOCK\[3\].RAM32.SLICE\[1\].RAM8.WORD\[2\].W.BYTE\[0\].B.SEL0INV/Y VGND VGND VPWR
+ VPWR BLOCK\[3\].RAM32.BYTE\[0\].FLOATBUF0\[0\].cell/Z sky130_fd_sc_hd__ebufn_2
XBLOCK\[2\].RAM32.SLICE\[3\].RAM8.WORD\[1\].W.BYTE\[0\].B.BIT\[5\].OBUF0 BLOCK\[2\].RAM32.SLICE\[3\].RAM8.WORD\[1\].W.BYTE\[0\].B.BIT\[5\].OBUF0/A
+ BLOCK\[2\].RAM32.SLICE\[3\].RAM8.WORD\[1\].W.BYTE\[0\].B.SEL0INV/Y VGND VGND VPWR
+ VPWR BLOCK\[2\].RAM32.BYTE\[0\].FLOATBUF0\[5\].cell/Z sky130_fd_sc_hd__ebufn_2
Xtap_79_4 VGND VPWR sky130_fd_sc_hd__tapvpwrvgnd_1
XBLOCK\[1\].RAM32.SLICE\[3\].RAM8.WORD\[6\].W.BYTE\[2\].B.BIT\[1\].OBUF0 BLOCK\[1\].RAM32.SLICE\[3\].RAM8.WORD\[6\].W.BYTE\[2\].B.BIT\[1\].OBUF0/A
+ BLOCK\[1\].RAM32.SLICE\[3\].RAM8.WORD\[6\].W.BYTE\[2\].B.SEL0INV/Y VGND VGND VPWR
+ VPWR BLOCK\[1\].RAM32.BYTE\[2\].FLOATBUF0\[17\].cell/Z sky130_fd_sc_hd__ebufn_2
XBLOCK\[1\].RAM32.SLICE\[2\].RAM8.WORD\[5\].W.BYTE\[1\].B.BIT\[5\].genblk1.STORAGE
+ BLOCK\[1\].RAM32.DIBUF\[13\].cell/X BLOCK\[1\].RAM32.SLICE\[2\].RAM8.WORD\[5\].W.BYTE\[1\].B.genblk1.CG/GCLK
+ VGND VGND VPWR VPWR BLOCK\[1\].RAM32.SLICE\[2\].RAM8.WORD\[5\].W.BYTE\[1\].B.BIT\[5\].OBUF0/A
+ sky130_fd_sc_hd__dlxtp_1
XBLOCK\[1\].RAM32.SLICE\[1\].RAM8.DEC0.AND4 BLOCK\[1\].RAM32.SLICE\[1\].RAM8.DEC0.AND7/A
+ BLOCK\[1\].RAM32.SLICE\[1\].RAM8.DEC0.AND7/B BLOCK\[1\].RAM32.SLICE\[1\].RAM8.DEC0.AND7/C
+ BLOCK\[1\].RAM32.SLICE\[1\].RAM8.DEC0.AND7/D VGND VGND VPWR VPWR BLOCK\[1\].RAM32.SLICE\[1\].RAM8.DEC0.AND4/X
+ sky130_fd_sc_hd__and4bb_2
Xtap_40_23 VGND VPWR sky130_fd_sc_hd__tapvpwrvgnd_1
Xtap_40_34 VGND VPWR sky130_fd_sc_hd__tapvpwrvgnd_1
Xtap_136_13 VGND VPWR sky130_fd_sc_hd__tapvpwrvgnd_1
XBLOCK\[3\].RAM32.SLICE\[1\].RAM8.WORD\[7\].W.BYTE\[0\].B.genblk1.CLKINV BLOCK\[3\].RAM32.SLICE\[1\].RAM8.WORD\[7\].W.CLKBUF/X
+ VGND VGND VPWR VPWR BLOCK\[3\].RAM32.SLICE\[1\].RAM8.WORD\[7\].W.BYTE\[0\].B.genblk1.CG/CLK
+ sky130_fd_sc_hd__inv_1
XBLOCK\[2\].RAM32.Do0_REG.OUTREG_BYTE\[3\].Do_FF\[1\] BLOCK\[2\].RAM32.Do0_REG.Do_CLKBUF\[3\]/X
+ BLOCK\[2\].RAM32.BYTE\[3\].FLOATBUF0\[25\].cell/Z VGND VGND VPWR VPWR Do0MUX.M\[3\].MUX\[1\]/A2
+ sky130_fd_sc_hd__dfxtp_1
XBLOCK\[1\].RAM32.SLICE\[1\].RAM8.WORD\[6\].W.BYTE\[3\].B.BIT\[1\].genblk1.STORAGE
+ BLOCK\[1\].RAM32.DIBUF\[25\].cell/X BLOCK\[1\].RAM32.SLICE\[1\].RAM8.WORD\[6\].W.BYTE\[3\].B.genblk1.CG/GCLK
+ VGND VGND VPWR VPWR BLOCK\[1\].RAM32.SLICE\[1\].RAM8.WORD\[6\].W.BYTE\[3\].B.BIT\[1\].OBUF0/A
+ sky130_fd_sc_hd__dlxtp_1
Xtap_136_35 VGND VPWR sky130_fd_sc_hd__tapvpwrvgnd_1
Xtap_136_24 VGND VPWR sky130_fd_sc_hd__tapvpwrvgnd_1
Xtap_49_21 VGND VPWR sky130_fd_sc_hd__tapvpwrvgnd_1
Xtap_49_10 VGND VPWR sky130_fd_sc_hd__tapvpwrvgnd_1
XBLOCK\[0\].RAM32.SLICE\[3\].RAM8.WORD\[7\].W.BYTE\[1\].B.BIT\[6\].genblk1.STORAGE
+ BLOCK\[0\].RAM32.DIBUF\[14\].cell/X BLOCK\[0\].RAM32.SLICE\[3\].RAM8.WORD\[7\].W.BYTE\[1\].B.genblk1.CG/GCLK
+ VGND VGND VPWR VPWR BLOCK\[0\].RAM32.SLICE\[3\].RAM8.WORD\[7\].W.BYTE\[1\].B.BIT\[6\].OBUF0/A
+ sky130_fd_sc_hd__dlxtp_1
XBLOCK\[3\].RAM32.SLICE\[1\].RAM8.WORD\[6\].W.BYTE\[3\].B.BIT\[3\].OBUF0 BLOCK\[3\].RAM32.SLICE\[1\].RAM8.WORD\[6\].W.BYTE\[3\].B.BIT\[3\].OBUF0/A
+ BLOCK\[3\].RAM32.SLICE\[1\].RAM8.WORD\[6\].W.BYTE\[3\].B.SEL0INV/Y VGND VGND VPWR
+ VPWR BLOCK\[3\].RAM32.BYTE\[3\].FLOATBUF0\[27\].cell/Z sky130_fd_sc_hd__ebufn_2
XBLOCK\[2\].RAM32.SLICE\[1\].RAM8.WORD\[3\].W.BYTE\[2\].B.CGAND BLOCK\[2\].RAM32.SLICE\[1\].RAM8.WORD\[3\].W.SEL0BUF/X
+ BLOCK\[2\].RAM32.SLICE\[1\].RAM8.WEBUF\[2\].cell/X VGND VGND VPWR VPWR BLOCK\[2\].RAM32.SLICE\[1\].RAM8.WORD\[3\].W.BYTE\[2\].B.CGAND/X
+ sky130_fd_sc_hd__and2_1
Xtap_49_32 VGND VPWR sky130_fd_sc_hd__tapvpwrvgnd_1
XBLOCK\[0\].RAM32.SLICE\[0\].RAM8.WORD\[7\].W.BYTE\[1\].B.BIT\[0\].OBUF0 BLOCK\[0\].RAM32.SLICE\[0\].RAM8.WORD\[7\].W.BYTE\[1\].B.BIT\[0\].OBUF0/A
+ BLOCK\[0\].RAM32.SLICE\[0\].RAM8.WORD\[7\].W.BYTE\[1\].B.SEL0INV/Y VGND VGND VPWR
+ VPWR BLOCK\[0\].RAM32.BYTE\[1\].FLOATBUF0\[8\].cell/Z sky130_fd_sc_hd__ebufn_2
XBLOCK\[0\].RAM32.SLICE\[3\].RAM8.WORD\[1\].W.BYTE\[2\].B.BIT\[7\].genblk1.STORAGE
+ BLOCK\[0\].RAM32.DIBUF\[23\].cell/X BLOCK\[0\].RAM32.SLICE\[3\].RAM8.WORD\[1\].W.BYTE\[2\].B.genblk1.CG/GCLK
+ VGND VGND VPWR VPWR BLOCK\[0\].RAM32.SLICE\[3\].RAM8.WORD\[1\].W.BYTE\[2\].B.BIT\[7\].OBUF0/A
+ sky130_fd_sc_hd__dlxtp_1
XBLOCK\[1\].RAM32.SLICE\[1\].RAM8.WORD\[4\].W.BYTE\[1\].B.BIT\[0\].genblk1.STORAGE
+ BLOCK\[1\].RAM32.DIBUF\[8\].cell/X BLOCK\[1\].RAM32.SLICE\[1\].RAM8.WORD\[4\].W.BYTE\[1\].B.genblk1.CG/GCLK
+ VGND VGND VPWR VPWR BLOCK\[1\].RAM32.SLICE\[1\].RAM8.WORD\[4\].W.BYTE\[1\].B.BIT\[0\].OBUF0/A
+ sky130_fd_sc_hd__dlxtp_1
XBLOCK\[0\].RAM32.Do0_REG.OUTREG_BYTE\[2\].Do_FF\[6\] BLOCK\[0\].RAM32.Do0_REG.Do_CLKBUF\[2\]/X
+ BLOCK\[0\].RAM32.BYTE\[2\].FLOATBUF0\[22\].cell/Z VGND VGND VPWR VPWR Do0MUX.M\[2\].MUX\[6\]/A0
+ sky130_fd_sc_hd__dfxtp_1
Xtap_22_0 VGND VPWR sky130_fd_sc_hd__tapvpwrvgnd_1
XBLOCK\[3\].RAM32.SLICE\[1\].RAM8.WORD\[6\].W.BYTE\[3\].B.DIODE_CLK BLOCK\[3\].RAM32.SLICE\[1\].RAM8.WORD\[6\].W.CLKBUF/X
+ VGND VGND VPWR VPWR sky130_fd_sc_hd__diode_2
Xtap_65_31 VGND VPWR sky130_fd_sc_hd__tapvpwrvgnd_1
Xtap_65_20 VGND VPWR sky130_fd_sc_hd__tapvpwrvgnd_1
XBLOCK\[0\].RAM32.TIE0\[1\].cell VGND VGND VPWR VPWR BLOCK\[0\].RAM32.TIE0\[1\].cell/HI
+ BLOCK\[0\].RAM32.TIE0\[1\].cell/LO sky130_fd_sc_hd__conb_1
XBLOCK\[1\].RAM32.SLICE\[0\].RAM8.WORD\[6\].W.BYTE\[2\].B.BIT\[7\].OBUF0 BLOCK\[1\].RAM32.SLICE\[0\].RAM8.WORD\[6\].W.BYTE\[2\].B.BIT\[7\].OBUF0/A
+ BLOCK\[1\].RAM32.SLICE\[0\].RAM8.WORD\[6\].W.BYTE\[2\].B.SEL0INV/Y VGND VGND VPWR
+ VPWR BLOCK\[1\].RAM32.BYTE\[2\].FLOATBUF0\[23\].cell/Z sky130_fd_sc_hd__ebufn_2
XBLOCK\[2\].RAM32.SLICE\[3\].RAM8.WORD\[7\].W.BYTE\[1\].B.SEL0INV BLOCK\[2\].RAM32.SLICE\[3\].RAM8.WORD\[7\].W.SEL0BUF/X
+ VGND VGND VPWR VPWR BLOCK\[2\].RAM32.SLICE\[3\].RAM8.WORD\[7\].W.BYTE\[1\].B.SEL0INV/Y
+ sky130_fd_sc_hd__inv_1
XBLOCK\[1\].RAM32.SLICE\[2\].RAM8.WORD\[1\].W.BYTE\[1\].B.BIT\[0\].OBUF0 BLOCK\[1\].RAM32.SLICE\[2\].RAM8.WORD\[1\].W.BYTE\[1\].B.BIT\[0\].OBUF0/A
+ BLOCK\[1\].RAM32.SLICE\[2\].RAM8.WORD\[1\].W.BYTE\[1\].B.SEL0INV/Y VGND VGND VPWR
+ VPWR BLOCK\[1\].RAM32.BYTE\[1\].FLOATBUF0\[8\].cell/Z sky130_fd_sc_hd__ebufn_2
XBLOCK\[0\].RAM32.SLICE\[2\].RAM8.WORD\[6\].W.BYTE\[1\].B.BIT\[1\].genblk1.STORAGE
+ BLOCK\[0\].RAM32.DIBUF\[9\].cell/X BLOCK\[0\].RAM32.SLICE\[2\].RAM8.WORD\[6\].W.BYTE\[1\].B.genblk1.CG/GCLK
+ VGND VGND VPWR VPWR BLOCK\[0\].RAM32.SLICE\[2\].RAM8.WORD\[6\].W.BYTE\[1\].B.BIT\[1\].OBUF0/A
+ sky130_fd_sc_hd__dlxtp_1
XBLOCK\[3\].RAM32.SLICE\[3\].RAM8.WORD\[1\].W.BYTE\[3\].B.SEL0INV BLOCK\[3\].RAM32.SLICE\[3\].RAM8.WORD\[1\].W.SEL0BUF/X
+ VGND VGND VPWR VPWR BLOCK\[3\].RAM32.SLICE\[3\].RAM8.WORD\[1\].W.BYTE\[3\].B.SEL0INV/Y
+ sky130_fd_sc_hd__inv_1
Xtap_81_30 VGND VPWR sky130_fd_sc_hd__tapvpwrvgnd_1
XBLOCK\[0\].RAM32.SLICE\[2\].RAM8.WORD\[0\].W.BYTE\[2\].B.BIT\[2\].genblk1.STORAGE
+ BLOCK\[0\].RAM32.DIBUF\[18\].cell/X BLOCK\[0\].RAM32.SLICE\[2\].RAM8.WORD\[0\].W.BYTE\[2\].B.genblk1.CG/GCLK
+ VGND VGND VPWR VPWR BLOCK\[0\].RAM32.SLICE\[2\].RAM8.WORD\[0\].W.BYTE\[2\].B.BIT\[2\].OBUF0/A
+ sky130_fd_sc_hd__dlxtp_1
Xfill_141_14 VGND VGND VPWR VPWR sky130_fd_sc_hd__decap_8
XBLOCK\[1\].RAM32.SLICE\[2\].RAM8.WORD\[6\].W.BYTE\[1\].B.genblk1.CLKINV BLOCK\[1\].RAM32.SLICE\[2\].RAM8.WORD\[6\].W.CLKBUF/X
+ VGND VGND VPWR VPWR BLOCK\[1\].RAM32.SLICE\[2\].RAM8.WORD\[6\].W.BYTE\[1\].B.genblk1.CG/CLK
+ sky130_fd_sc_hd__inv_1
Xfill_0_14 VGND VGND VPWR VPWR sky130_fd_sc_hd__decap_12
XBLOCK\[3\].RAM32.SLICE\[0\].RAM8.WORD\[1\].W.BYTE\[2\].B.BIT\[2\].OBUF0 BLOCK\[3\].RAM32.SLICE\[0\].RAM8.WORD\[1\].W.BYTE\[2\].B.BIT\[2\].OBUF0/A
+ BLOCK\[3\].RAM32.SLICE\[0\].RAM8.WORD\[1\].W.BYTE\[2\].B.SEL0INV/Y VGND VGND VPWR
+ VPWR BLOCK\[3\].RAM32.BYTE\[2\].FLOATBUF0\[18\].cell/Z sky130_fd_sc_hd__ebufn_2
XBLOCK\[2\].RAM32.SLICE\[2\].RAM8.WORD\[0\].W.BYTE\[2\].B.BIT\[7\].OBUF0 BLOCK\[2\].RAM32.SLICE\[2\].RAM8.WORD\[0\].W.BYTE\[2\].B.BIT\[7\].OBUF0/A
+ BLOCK\[2\].RAM32.SLICE\[2\].RAM8.WORD\[0\].W.BYTE\[2\].B.SEL0INV/Y VGND VGND VPWR
+ VPWR BLOCK\[2\].RAM32.BYTE\[2\].FLOATBUF0\[23\].cell/Z sky130_fd_sc_hd__ebufn_2
XBLOCK\[2\].RAM32.SLICE\[0\].RAM8.WORD\[1\].W.BYTE\[3\].B.genblk1.CG BLOCK\[2\].RAM32.SLICE\[0\].RAM8.WORD\[1\].W.BYTE\[3\].B.genblk1.CG/CLK
+ BLOCK\[2\].RAM32.SLICE\[0\].RAM8.WORD\[1\].W.BYTE\[3\].B.CGAND/X VGND VGND VPWR
+ VPWR BLOCK\[2\].RAM32.SLICE\[0\].RAM8.WORD\[1\].W.BYTE\[3\].B.genblk1.CG/GCLK sky130_fd_sc_hd__dlclkp_1
XBLOCK\[0\].RAM32.SLICE\[2\].RAM8.WORD\[0\].W.BYTE\[2\].B.genblk1.CG BLOCK\[0\].RAM32.SLICE\[2\].RAM8.WORD\[0\].W.BYTE\[2\].B.genblk1.CG/CLK
+ BLOCK\[0\].RAM32.SLICE\[2\].RAM8.WORD\[0\].W.BYTE\[2\].B.CGAND/X VGND VGND VPWR
+ VPWR BLOCK\[0\].RAM32.SLICE\[2\].RAM8.WORD\[0\].W.BYTE\[2\].B.genblk1.CG/GCLK sky130_fd_sc_hd__dlclkp_1
XBLOCK\[3\].RAM32.SLICE\[3\].RAM8.WORD\[2\].W.BYTE\[2\].B.BIT\[4\].OBUF0 BLOCK\[3\].RAM32.SLICE\[3\].RAM8.WORD\[2\].W.BYTE\[2\].B.BIT\[4\].OBUF0/A
+ BLOCK\[3\].RAM32.SLICE\[3\].RAM8.WORD\[2\].W.BYTE\[2\].B.SEL0INV/Y VGND VGND VPWR
+ VPWR BLOCK\[3\].RAM32.BYTE\[2\].FLOATBUF0\[20\].cell/Z sky130_fd_sc_hd__ebufn_2
XBLOCK\[0\].RAM32.SLICE\[2\].RAM8.WORD\[3\].W.BYTE\[0\].B.BIT\[1\].OBUF0 BLOCK\[0\].RAM32.SLICE\[2\].RAM8.WORD\[3\].W.BYTE\[0\].B.BIT\[1\].OBUF0/A
+ BLOCK\[0\].RAM32.SLICE\[2\].RAM8.WORD\[3\].W.BYTE\[0\].B.SEL0INV/Y VGND VGND VPWR
+ VPWR BLOCK\[0\].RAM32.BYTE\[0\].FLOATBUF0\[1\].cell/Z sky130_fd_sc_hd__ebufn_2
XBLOCK\[3\].RAM32.SLICE\[3\].RAM8.WORD\[7\].W.BYTE\[0\].B.BIT\[6\].genblk1.STORAGE
+ BLOCK\[3\].RAM32.DIBUF\[6\].cell/X BLOCK\[3\].RAM32.SLICE\[3\].RAM8.WORD\[7\].W.BYTE\[0\].B.genblk1.CG/GCLK
+ VGND VGND VPWR VPWR BLOCK\[3\].RAM32.SLICE\[3\].RAM8.WORD\[7\].W.BYTE\[0\].B.BIT\[6\].OBUF0/A
+ sky130_fd_sc_hd__dlxtp_1
XBLOCK\[3\].RAM32.SLICE\[3\].RAM8.WORD\[1\].W.BYTE\[1\].B.BIT\[7\].genblk1.STORAGE
+ BLOCK\[3\].RAM32.DIBUF\[15\].cell/X BLOCK\[3\].RAM32.SLICE\[3\].RAM8.WORD\[1\].W.BYTE\[1\].B.genblk1.CG/GCLK
+ VGND VGND VPWR VPWR BLOCK\[3\].RAM32.SLICE\[3\].RAM8.WORD\[1\].W.BYTE\[1\].B.BIT\[7\].OBUF0/A
+ sky130_fd_sc_hd__dlxtp_1
XBLOCK\[3\].RAM32.SLICE\[1\].RAM8.WEBUF\[3\].cell BLOCK\[3\].RAM32.WEBUF\[3\].cell/X
+ VGND VGND VPWR VPWR BLOCK\[3\].RAM32.SLICE\[1\].RAM8.WEBUF\[3\].cell/X sky130_fd_sc_hd__clkbuf_2
XBLOCK\[2\].RAM32.A0BUF\[0\].cell A0BUF\[0\].cell/X VGND VGND VPWR VPWR BLOCK\[2\].RAM32.A0BUF\[0\].cell/X
+ sky130_fd_sc_hd__clkbuf_2
XBLOCK\[1\].RAM32.SLICE\[0\].RAM8.WORD\[3\].W.BYTE\[3\].B.BIT\[7\].genblk1.STORAGE
+ BLOCK\[1\].RAM32.DIBUF\[31\].cell/X BLOCK\[1\].RAM32.SLICE\[0\].RAM8.WORD\[3\].W.BYTE\[3\].B.genblk1.CG/GCLK
+ VGND VGND VPWR VPWR BLOCK\[1\].RAM32.SLICE\[0\].RAM8.WORD\[3\].W.BYTE\[3\].B.BIT\[7\].OBUF0/A
+ sky130_fd_sc_hd__dlxtp_1
XBLOCK\[2\].RAM32.SLICE\[2\].RAM8.WORD\[3\].W.BYTE\[3\].B.DIODE_CLK BLOCK\[2\].RAM32.SLICE\[2\].RAM8.WORD\[3\].W.CLKBUF/X
+ VGND VGND VPWR VPWR sky130_fd_sc_hd__diode_2
XBLOCK\[3\].RAM32.SLICE\[2\].RAM8.WORD\[2\].W.BYTE\[3\].B.BIT\[3\].genblk1.STORAGE
+ BLOCK\[3\].RAM32.DIBUF\[27\].cell/X BLOCK\[3\].RAM32.SLICE\[2\].RAM8.WORD\[2\].W.BYTE\[3\].B.genblk1.CG/GCLK
+ VGND VGND VPWR VPWR BLOCK\[3\].RAM32.SLICE\[2\].RAM8.WORD\[2\].W.BYTE\[3\].B.BIT\[3\].OBUF0/A
+ sky130_fd_sc_hd__dlxtp_1
Xfill_50_4 VGND VGND VPWR VPWR sky130_fd_sc_hd__decap_12
XBLOCK\[2\].RAM32.SLICE\[2\].RAM8.WORD\[3\].W.BYTE\[0\].B.SEL0INV BLOCK\[2\].RAM32.SLICE\[2\].RAM8.WORD\[3\].W.SEL0BUF/X
+ VGND VGND VPWR VPWR BLOCK\[2\].RAM32.SLICE\[2\].RAM8.WORD\[3\].W.BYTE\[0\].B.SEL0INV/Y
+ sky130_fd_sc_hd__inv_1
XBLOCK\[2\].RAM32.SLICE\[0\].RAM8.WORD\[3\].W.BYTE\[1\].B.BIT\[3\].OBUF0 BLOCK\[2\].RAM32.SLICE\[0\].RAM8.WORD\[3\].W.BYTE\[1\].B.BIT\[3\].OBUF0/A
+ BLOCK\[2\].RAM32.SLICE\[0\].RAM8.WORD\[3\].W.BYTE\[1\].B.SEL0INV/Y VGND VGND VPWR
+ VPWR BLOCK\[2\].RAM32.BYTE\[1\].FLOATBUF0\[11\].cell/Z sky130_fd_sc_hd__ebufn_2
XBLOCK\[0\].RAM32.SLICE\[2\].RAM8.WORD\[7\].W.BYTE\[3\].B.BIT\[4\].OBUF0 BLOCK\[0\].RAM32.SLICE\[2\].RAM8.WORD\[7\].W.BYTE\[3\].B.BIT\[4\].OBUF0/A
+ BLOCK\[0\].RAM32.SLICE\[2\].RAM8.WORD\[7\].W.BYTE\[3\].B.SEL0INV/Y VGND VGND VPWR
+ VPWR BLOCK\[0\].RAM32.BYTE\[3\].FLOATBUF0\[28\].cell/Z sky130_fd_sc_hd__ebufn_2
XBLOCK\[1\].RAM32.SLICE\[0\].RAM8.WORD\[1\].W.BYTE\[1\].B.BIT\[6\].genblk1.STORAGE
+ BLOCK\[1\].RAM32.DIBUF\[14\].cell/X BLOCK\[1\].RAM32.SLICE\[0\].RAM8.WORD\[1\].W.BYTE\[1\].B.genblk1.CG/GCLK
+ VGND VGND VPWR VPWR BLOCK\[1\].RAM32.SLICE\[0\].RAM8.WORD\[1\].W.BYTE\[1\].B.BIT\[6\].OBUF0/A
+ sky130_fd_sc_hd__dlxtp_1
Xfill_43_3 VGND VGND VPWR VPWR sky130_fd_sc_hd__decap_12
XBLOCK\[1\].RAM32.SLICE\[0\].RAM8.WORD\[7\].W.BYTE\[0\].B.BIT\[5\].genblk1.STORAGE
+ BLOCK\[1\].RAM32.DIBUF\[5\].cell/X BLOCK\[1\].RAM32.SLICE\[0\].RAM8.WORD\[7\].W.BYTE\[0\].B.genblk1.CG/GCLK
+ VGND VGND VPWR VPWR BLOCK\[1\].RAM32.SLICE\[0\].RAM8.WORD\[7\].W.BYTE\[0\].B.BIT\[5\].OBUF0/A
+ sky130_fd_sc_hd__dlxtp_1
Xfill_36_2 VGND VGND VPWR VPWR sky130_fd_sc_hd__decap_12
XBLOCK\[1\].RAM32.SLICE\[1\].RAM8.WORD\[0\].W.BYTE\[3\].B.BIT\[2\].OBUF0 BLOCK\[1\].RAM32.SLICE\[1\].RAM8.WORD\[0\].W.BYTE\[3\].B.BIT\[2\].OBUF0/A
+ BLOCK\[1\].RAM32.SLICE\[1\].RAM8.WORD\[0\].W.BYTE\[3\].B.SEL0INV/Y VGND VGND VPWR
+ VPWR BLOCK\[1\].RAM32.BYTE\[3\].FLOATBUF0\[26\].cell/Z sky130_fd_sc_hd__ebufn_2
XBLOCK\[3\].RAM32.SLICE\[2\].RAM8.WORD\[6\].W.BYTE\[0\].B.BIT\[1\].genblk1.STORAGE
+ BLOCK\[3\].RAM32.DIBUF\[1\].cell/X BLOCK\[3\].RAM32.SLICE\[2\].RAM8.WORD\[6\].W.BYTE\[0\].B.genblk1.CG/GCLK
+ VGND VGND VPWR VPWR BLOCK\[3\].RAM32.SLICE\[2\].RAM8.WORD\[6\].W.BYTE\[0\].B.BIT\[1\].OBUF0/A
+ sky130_fd_sc_hd__dlxtp_1
XBLOCK\[2\].RAM32.SLICE\[2\].RAM8.WORD\[3\].W.CLKBUF BLOCK\[2\].RAM32.SLICE\[2\].RAM8.CLKBUF.cell/X
+ VGND VGND VPWR VPWR BLOCK\[2\].RAM32.SLICE\[2\].RAM8.WORD\[3\].W.CLKBUF/X sky130_fd_sc_hd__clkbuf_4
XBLOCK\[3\].RAM32.SLICE\[2\].RAM8.WORD\[0\].W.BYTE\[1\].B.BIT\[2\].genblk1.STORAGE
+ BLOCK\[3\].RAM32.DIBUF\[10\].cell/X BLOCK\[3\].RAM32.SLICE\[2\].RAM8.WORD\[0\].W.BYTE\[1\].B.genblk1.CG/GCLK
+ VGND VGND VPWR VPWR BLOCK\[3\].RAM32.SLICE\[2\].RAM8.WORD\[0\].W.BYTE\[1\].B.BIT\[2\].OBUF0/A
+ sky130_fd_sc_hd__dlxtp_1
XBLOCK\[2\].RAM32.SLICE\[3\].RAM8.WORD\[4\].W.BYTE\[3\].B.BIT\[4\].genblk1.STORAGE
+ BLOCK\[2\].RAM32.DIBUF\[28\].cell/X BLOCK\[2\].RAM32.SLICE\[3\].RAM8.WORD\[4\].W.BYTE\[3\].B.genblk1.CG/GCLK
+ VGND VGND VPWR VPWR BLOCK\[2\].RAM32.SLICE\[3\].RAM8.WORD\[4\].W.BYTE\[3\].B.BIT\[4\].OBUF0/A
+ sky130_fd_sc_hd__dlxtp_1
Xfill_29_1 VGND VGND VPWR VPWR sky130_fd_sc_hd__decap_12
XBLOCK\[1\].RAM32.SLICE\[0\].RAM8.CLKBUF.cell BLOCK\[1\].RAM32.CLKBUF.cell/X VGND
+ VGND VPWR VPWR BLOCK\[1\].RAM32.SLICE\[0\].RAM8.CLKBUF.cell/X sky130_fd_sc_hd__clkbuf_2
XBLOCK\[3\].RAM32.SLICE\[2\].RAM8.WORD\[5\].W.BYTE\[0\].B.DIODE_CLK BLOCK\[3\].RAM32.SLICE\[2\].RAM8.WORD\[5\].W.CLKBUF/X
+ VGND VGND VPWR VPWR sky130_fd_sc_hd__diode_2
XBLOCK\[0\].RAM32.SLICE\[1\].RAM8.WORD\[3\].W.BYTE\[1\].B.BIT\[7\].genblk1.STORAGE
+ BLOCK\[0\].RAM32.DIBUF\[15\].cell/X BLOCK\[0\].RAM32.SLICE\[1\].RAM8.WORD\[3\].W.BYTE\[1\].B.genblk1.CG/GCLK
+ VGND VGND VPWR VPWR BLOCK\[0\].RAM32.SLICE\[1\].RAM8.WORD\[3\].W.BYTE\[1\].B.BIT\[7\].OBUF0/A
+ sky130_fd_sc_hd__dlxtp_1
XBLOCK\[3\].RAM32.SLICE\[1\].RAM8.WORD\[5\].W.BYTE\[1\].B.BIT\[0\].OBUF0 BLOCK\[3\].RAM32.SLICE\[1\].RAM8.WORD\[5\].W.BYTE\[1\].B.BIT\[0\].OBUF0/A
+ BLOCK\[3\].RAM32.SLICE\[1\].RAM8.WORD\[5\].W.BYTE\[1\].B.SEL0INV/Y VGND VGND VPWR
+ VPWR BLOCK\[3\].RAM32.BYTE\[1\].FLOATBUF0\[8\].cell/Z sky130_fd_sc_hd__ebufn_2
XBLOCK\[2\].RAM32.SLICE\[3\].RAM8.WORD\[4\].W.BYTE\[1\].B.BIT\[5\].OBUF0 BLOCK\[2\].RAM32.SLICE\[3\].RAM8.WORD\[4\].W.BYTE\[1\].B.BIT\[5\].OBUF0/A
+ BLOCK\[2\].RAM32.SLICE\[3\].RAM8.WORD\[4\].W.BYTE\[1\].B.SEL0INV/Y VGND VGND VPWR
+ VPWR BLOCK\[2\].RAM32.BYTE\[1\].FLOATBUF0\[13\].cell/Z sky130_fd_sc_hd__ebufn_2
XBLOCK\[0\].RAM32.SLICE\[0\].RAM8.WORD\[4\].W.BYTE\[3\].B.BIT\[3\].genblk1.STORAGE
+ BLOCK\[0\].RAM32.DIBUF\[27\].cell/X BLOCK\[0\].RAM32.SLICE\[0\].RAM8.WORD\[4\].W.BYTE\[3\].B.genblk1.CG/GCLK
+ VGND VGND VPWR VPWR BLOCK\[0\].RAM32.SLICE\[0\].RAM8.WORD\[4\].W.BYTE\[3\].B.BIT\[3\].OBUF0/A
+ sky130_fd_sc_hd__dlxtp_1
XBLOCK\[2\].RAM32.SLICE\[3\].RAM8.WORD\[2\].W.BYTE\[1\].B.BIT\[3\].genblk1.STORAGE
+ BLOCK\[2\].RAM32.DIBUF\[11\].cell/X BLOCK\[2\].RAM32.SLICE\[3\].RAM8.WORD\[2\].W.BYTE\[1\].B.genblk1.CG/GCLK
+ VGND VGND VPWR VPWR BLOCK\[2\].RAM32.SLICE\[3\].RAM8.WORD\[2\].W.BYTE\[1\].B.BIT\[3\].OBUF0/A
+ sky130_fd_sc_hd__dlxtp_1
Xtap_58_9 VGND VPWR sky130_fd_sc_hd__tapvpwrvgnd_1
Xtap_10_26 VGND VPWR sky130_fd_sc_hd__tapvpwrvgnd_1
Xtap_10_15 VGND VPWR sky130_fd_sc_hd__tapvpwrvgnd_1
XBLOCK\[1\].RAM32.SLICE\[0\].RAM8.WORD\[5\].W.BYTE\[0\].B.BIT\[4\].OBUF0 BLOCK\[1\].RAM32.SLICE\[0\].RAM8.WORD\[5\].W.BYTE\[0\].B.BIT\[4\].OBUF0/A
+ BLOCK\[1\].RAM32.SLICE\[0\].RAM8.WORD\[5\].W.BYTE\[0\].B.SEL0INV/Y VGND VGND VPWR
+ VPWR BLOCK\[1\].RAM32.BYTE\[0\].FLOATBUF0\[4\].cell/Z sky130_fd_sc_hd__ebufn_2
Xtap_86_19 VGND VPWR sky130_fd_sc_hd__tapvpwrvgnd_1
XBLOCK\[0\].RAM32.SLICE\[0\].RAM8.WORD\[2\].W.BYTE\[1\].B.BIT\[2\].genblk1.STORAGE
+ BLOCK\[0\].RAM32.DIBUF\[10\].cell/X BLOCK\[0\].RAM32.SLICE\[0\].RAM8.WORD\[2\].W.BYTE\[1\].B.genblk1.CG/GCLK
+ VGND VGND VPWR VPWR BLOCK\[0\].RAM32.SLICE\[0\].RAM8.WORD\[2\].W.BYTE\[1\].B.BIT\[2\].OBUF0/A
+ sky130_fd_sc_hd__dlxtp_1
XBLOCK\[0\].RAM32.SLICE\[1\].RAM8.WORD\[2\].W.BYTE\[2\].B.BIT\[3\].OBUF0 BLOCK\[0\].RAM32.SLICE\[1\].RAM8.WORD\[2\].W.BYTE\[2\].B.BIT\[3\].OBUF0/A
+ BLOCK\[0\].RAM32.SLICE\[1\].RAM8.WORD\[2\].W.BYTE\[2\].B.SEL0INV/Y VGND VGND VPWR
+ VPWR BLOCK\[0\].RAM32.BYTE\[2\].FLOATBUF0\[19\].cell/Z sky130_fd_sc_hd__ebufn_2
Xtap_106_27 VGND VPWR sky130_fd_sc_hd__tapvpwrvgnd_1
Xtap_106_16 VGND VPWR sky130_fd_sc_hd__tapvpwrvgnd_1
XBLOCK\[1\].RAM32.SLICE\[3\].RAM8.WORD\[0\].W.BYTE\[3\].B.DIODE_CLK BLOCK\[1\].RAM32.SLICE\[3\].RAM8.WORD\[0\].W.CLKBUF/X
+ VGND VGND VPWR VPWR sky130_fd_sc_hd__diode_2
XBLOCK\[0\].RAM32.SLICE\[1\].RAM8.WORD\[7\].W.BYTE\[1\].B.genblk1.CG BLOCK\[0\].RAM32.SLICE\[1\].RAM8.WORD\[7\].W.BYTE\[1\].B.genblk1.CG/CLK
+ BLOCK\[0\].RAM32.SLICE\[1\].RAM8.WORD\[7\].W.BYTE\[1\].B.CGAND/X VGND VGND VPWR
+ VPWR BLOCK\[0\].RAM32.SLICE\[1\].RAM8.WORD\[7\].W.BYTE\[1\].B.genblk1.CG/GCLK sky130_fd_sc_hd__dlclkp_1
Xtap_19_13 VGND VPWR sky130_fd_sc_hd__tapvpwrvgnd_1
XBLOCK\[1\].RAM32.SLICE\[3\].RAM8.WORD\[5\].W.BYTE\[3\].B.BIT\[0\].genblk1.STORAGE
+ BLOCK\[1\].RAM32.DIBUF\[24\].cell/X BLOCK\[1\].RAM32.SLICE\[3\].RAM8.WORD\[5\].W.BYTE\[3\].B.genblk1.CG/GCLK
+ VGND VGND VPWR VPWR BLOCK\[1\].RAM32.SLICE\[3\].RAM8.WORD\[5\].W.BYTE\[3\].B.BIT\[0\].OBUF0/A
+ sky130_fd_sc_hd__dlxtp_1
XBLOCK\[1\].RAM32.SLICE\[3\].RAM8.WORD\[5\].W.BYTE\[2\].B.SEL0INV BLOCK\[1\].RAM32.SLICE\[3\].RAM8.WORD\[5\].W.SEL0BUF/X
+ VGND VGND VPWR VPWR BLOCK\[1\].RAM32.SLICE\[3\].RAM8.WORD\[5\].W.BYTE\[2\].B.SEL0INV/Y
+ sky130_fd_sc_hd__inv_1
XBLOCK\[1\].RAM32.SLICE\[2\].RAM8.WORD\[6\].W.BYTE\[2\].B.DIODE_CLK BLOCK\[1\].RAM32.SLICE\[2\].RAM8.WORD\[6\].W.CLKBUF/X
+ VGND VGND VPWR VPWR sky130_fd_sc_hd__diode_2
Xtap_19_24 VGND VPWR sky130_fd_sc_hd__tapvpwrvgnd_1
Xtap_19_35 VGND VPWR sky130_fd_sc_hd__tapvpwrvgnd_1
Xtap_122_26 VGND VPWR sky130_fd_sc_hd__tapvpwrvgnd_1
Xtap_122_15 VGND VPWR sky130_fd_sc_hd__tapvpwrvgnd_1
XBLOCK\[2\].RAM32.SLICE\[1\].RAM8.WORD\[7\].W.BYTE\[0\].B.BIT\[1\].OBUF0 BLOCK\[2\].RAM32.SLICE\[1\].RAM8.WORD\[7\].W.BYTE\[0\].B.BIT\[1\].OBUF0/A
+ BLOCK\[2\].RAM32.SLICE\[1\].RAM8.WORD\[7\].W.BYTE\[0\].B.SEL0INV/Y VGND VGND VPWR
+ VPWR BLOCK\[2\].RAM32.BYTE\[0\].FLOATBUF0\[1\].cell/Z sky130_fd_sc_hd__ebufn_2
XBLOCK\[1\].RAM32.SLICE\[3\].RAM8.WORD\[6\].W.BYTE\[0\].B.BIT\[6\].OBUF0 BLOCK\[1\].RAM32.SLICE\[3\].RAM8.WORD\[6\].W.BYTE\[0\].B.BIT\[6\].OBUF0/A
+ BLOCK\[1\].RAM32.SLICE\[3\].RAM8.WORD\[6\].W.BYTE\[0\].B.SEL0INV/Y VGND VGND VPWR
+ VPWR BLOCK\[1\].RAM32.BYTE\[0\].FLOATBUF0\[6\].cell/Z sky130_fd_sc_hd__ebufn_2
XBLOCK\[1\].RAM32.SLICE\[2\].RAM8.WORD\[4\].W.BYTE\[2\].B.BIT\[0\].OBUF0 BLOCK\[1\].RAM32.SLICE\[2\].RAM8.WORD\[4\].W.BYTE\[2\].B.BIT\[0\].OBUF0/A
+ BLOCK\[1\].RAM32.SLICE\[2\].RAM8.WORD\[4\].W.BYTE\[2\].B.SEL0INV/Y VGND VGND VPWR
+ VPWR BLOCK\[1\].RAM32.BYTE\[2\].FLOATBUF0\[16\].cell/Z sky130_fd_sc_hd__ebufn_2
Xtap_35_12 VGND VPWR sky130_fd_sc_hd__tapvpwrvgnd_1
Xtap_35_23 VGND VPWR sky130_fd_sc_hd__tapvpwrvgnd_1
Xtap_1_5 VGND VPWR sky130_fd_sc_hd__tapvpwrvgnd_1
XBLOCK\[2\].RAM32.Do0_REG.OUTREG_BYTE\[0\].DIODE\[4\] BLOCK\[2\].RAM32.BYTE\[0\].FLOATBUF0\[4\].cell/Z
+ VGND VGND VPWR VPWR sky130_fd_sc_hd__diode_2
XBLOCK\[3\].RAM32.SLICE\[0\].RAM8.WORD\[4\].W.BYTE\[3\].B.BIT\[2\].OBUF0 BLOCK\[3\].RAM32.SLICE\[0\].RAM8.WORD\[4\].W.BYTE\[3\].B.BIT\[2\].OBUF0/A
+ BLOCK\[3\].RAM32.SLICE\[0\].RAM8.WORD\[4\].W.BYTE\[3\].B.SEL0INV/Y VGND VGND VPWR
+ VPWR BLOCK\[3\].RAM32.BYTE\[3\].FLOATBUF0\[26\].cell/Z sky130_fd_sc_hd__ebufn_2
XBLOCK\[2\].RAM32.SLICE\[3\].RAM8.WORD\[2\].W.BYTE\[0\].B.DIODE_CLK BLOCK\[2\].RAM32.SLICE\[3\].RAM8.WORD\[2\].W.CLKBUF/X
+ VGND VGND VPWR VPWR sky130_fd_sc_hd__diode_2
XBLOCK\[2\].RAM32.SLICE\[2\].RAM8.WORD\[3\].W.BYTE\[3\].B.BIT\[7\].OBUF0 BLOCK\[2\].RAM32.SLICE\[2\].RAM8.WORD\[3\].W.BYTE\[3\].B.BIT\[7\].OBUF0/A
+ BLOCK\[2\].RAM32.SLICE\[2\].RAM8.WORD\[3\].W.BYTE\[3\].B.SEL0INV/Y VGND VGND VPWR
+ VPWR BLOCK\[2\].RAM32.BYTE\[3\].FLOATBUF0\[31\].cell/Z sky130_fd_sc_hd__ebufn_2
Xtap_91_3 VGND VPWR sky130_fd_sc_hd__tapvpwrvgnd_1
Xtap_51_22 VGND VPWR sky130_fd_sc_hd__tapvpwrvgnd_1
Xtap_51_11 VGND VPWR sky130_fd_sc_hd__tapvpwrvgnd_1
Xtap_136_3 VGND VPWR sky130_fd_sc_hd__tapvpwrvgnd_1
XBLOCK\[3\].RAM32.SLICE\[3\].RAM8.WORD\[1\].W.BYTE\[0\].B.BIT\[1\].OBUF0 BLOCK\[3\].RAM32.SLICE\[3\].RAM8.WORD\[1\].W.BYTE\[0\].B.BIT\[1\].OBUF0/A
+ BLOCK\[3\].RAM32.SLICE\[3\].RAM8.WORD\[1\].W.BYTE\[0\].B.SEL0INV/Y VGND VGND VPWR
+ VPWR BLOCK\[3\].RAM32.BYTE\[0\].FLOATBUF0\[1\].cell/Z sky130_fd_sc_hd__ebufn_2
XBLOCK\[3\].RAM32.SLICE\[1\].RAM8.WORD\[3\].W.BYTE\[0\].B.BIT\[7\].genblk1.STORAGE
+ BLOCK\[3\].RAM32.DIBUF\[7\].cell/X BLOCK\[3\].RAM32.SLICE\[1\].RAM8.WORD\[3\].W.BYTE\[0\].B.genblk1.CG/GCLK
+ VGND VGND VPWR VPWR BLOCK\[3\].RAM32.SLICE\[1\].RAM8.WORD\[3\].W.BYTE\[0\].B.BIT\[7\].OBUF0/A
+ sky130_fd_sc_hd__dlxtp_1
Xtap_84_2 VGND VPWR sky130_fd_sc_hd__tapvpwrvgnd_1
Xtap_51_33 VGND VPWR sky130_fd_sc_hd__tapvpwrvgnd_1
Xfill_142_6 VGND VPWR sky130_fd_sc_hd__tapvpwrvgnd_1
Xtap_129_2 VGND VPWR sky130_fd_sc_hd__tapvpwrvgnd_1
Xtap_77_1 VGND VPWR sky130_fd_sc_hd__tapvpwrvgnd_1
XBLOCK\[1\].RAM32.SLICE\[1\].RAM8.WORD\[4\].W.SEL0BUF BLOCK\[1\].RAM32.SLICE\[1\].RAM8.DEC0.AND4/X
+ VGND VGND VPWR VPWR BLOCK\[1\].RAM32.SLICE\[1\].RAM8.WORD\[4\].W.SEL0BUF/X sky130_fd_sc_hd__clkbuf_2
Xfill_128_4 VGND VGND VPWR VPWR sky130_fd_sc_hd__decap_12
XBLOCK\[3\].RAM32.SLICE\[0\].RAM8.WORD\[4\].W.BYTE\[2\].B.BIT\[3\].genblk1.STORAGE