*SPEF "ieee 1481-1999"
*DESIGN "mgmt_core_wrapper"
*DATE "11:11:11 Fri 11 11, 1111"
*VENDOR "OpenRCX"
*PROGRAM "Parallel Extraction"
*VERSION "1.0"
*DESIGN_FLOW "NAME_SCOPE LOCAL" "PIN_CAP NONE"
*DIVIDER /
*DELIMITER :
*BUS_DELIMITER []
*T_UNIT 1 NS
*C_UNIT 1 PF
*R_UNIT 1 OHM
*L_UNIT 1 HENRY

*NAME_MAP
*3 core_clk
*4 core_rstn
*5 debug_in
*6 debug_mode
*7 debug_oeb
*8 debug_out
*9 flash_clk
*10 flash_csb
*11 flash_io0_di
*12 flash_io0_do
*13 flash_io0_oeb
*14 flash_io1_di
*15 flash_io1_do
*16 flash_io1_oeb
*17 flash_io2_di
*18 flash_io2_do
*19 flash_io2_oeb
*20 flash_io3_di
*21 flash_io3_do
*22 flash_io3_oeb
*23 gpio_in_pad
*24 gpio_inenb_pad
*25 gpio_mode0_pad
*26 gpio_mode1_pad
*27 gpio_out_pad
*28 gpio_outenb_pad
*29 hk_ack_i
*30 hk_dat_i[0]
*31 hk_dat_i[10]
*32 hk_dat_i[11]
*33 hk_dat_i[12]
*34 hk_dat_i[13]
*35 hk_dat_i[14]
*36 hk_dat_i[15]
*37 hk_dat_i[16]
*38 hk_dat_i[17]
*39 hk_dat_i[18]
*40 hk_dat_i[19]
*41 hk_dat_i[1]
*42 hk_dat_i[20]
*43 hk_dat_i[21]
*44 hk_dat_i[22]
*45 hk_dat_i[23]
*46 hk_dat_i[24]
*47 hk_dat_i[25]
*48 hk_dat_i[26]
*49 hk_dat_i[27]
*50 hk_dat_i[28]
*51 hk_dat_i[29]
*52 hk_dat_i[2]
*53 hk_dat_i[30]
*54 hk_dat_i[31]
*55 hk_dat_i[3]
*56 hk_dat_i[4]
*57 hk_dat_i[5]
*58 hk_dat_i[6]
*59 hk_dat_i[7]
*60 hk_dat_i[8]
*61 hk_dat_i[9]
*62 hk_stb_o
*63 irq[0]
*64 irq[1]
*65 irq[2]
*66 irq[3]
*67 irq[4]
*68 irq[5]
*69 la_iena[0]
*70 la_iena[100]
*71 la_iena[101]
*72 la_iena[102]
*73 la_iena[103]
*74 la_iena[104]
*75 la_iena[105]
*76 la_iena[106]
*77 la_iena[107]
*78 la_iena[108]
*79 la_iena[109]
*80 la_iena[10]
*81 la_iena[110]
*82 la_iena[111]
*83 la_iena[112]
*84 la_iena[113]
*85 la_iena[114]
*86 la_iena[115]
*87 la_iena[116]
*88 la_iena[117]
*89 la_iena[118]
*90 la_iena[119]
*91 la_iena[11]
*92 la_iena[120]
*93 la_iena[121]
*94 la_iena[122]
*95 la_iena[123]
*96 la_iena[124]
*97 la_iena[125]
*98 la_iena[126]
*99 la_iena[127]
*100 la_iena[12]
*101 la_iena[13]
*102 la_iena[14]
*103 la_iena[15]
*104 la_iena[16]
*105 la_iena[17]
*106 la_iena[18]
*107 la_iena[19]
*108 la_iena[1]
*109 la_iena[20]
*110 la_iena[21]
*111 la_iena[22]
*112 la_iena[23]
*113 la_iena[24]
*114 la_iena[25]
*115 la_iena[26]
*116 la_iena[27]
*117 la_iena[28]
*118 la_iena[29]
*119 la_iena[2]
*120 la_iena[30]
*121 la_iena[31]
*122 la_iena[32]
*123 la_iena[33]
*124 la_iena[34]
*125 la_iena[35]
*126 la_iena[36]
*127 la_iena[37]
*128 la_iena[38]
*129 la_iena[39]
*130 la_iena[3]
*131 la_iena[40]
*132 la_iena[41]
*133 la_iena[42]
*134 la_iena[43]
*135 la_iena[44]
*136 la_iena[45]
*137 la_iena[46]
*138 la_iena[47]
*139 la_iena[48]
*140 la_iena[49]
*141 la_iena[4]
*142 la_iena[50]
*143 la_iena[51]
*144 la_iena[52]
*145 la_iena[53]
*146 la_iena[54]
*147 la_iena[55]
*148 la_iena[56]
*149 la_iena[57]
*150 la_iena[58]
*151 la_iena[59]
*152 la_iena[5]
*153 la_iena[60]
*154 la_iena[61]
*155 la_iena[62]
*156 la_iena[63]
*157 la_iena[64]
*158 la_iena[65]
*159 la_iena[66]
*160 la_iena[67]
*161 la_iena[68]
*162 la_iena[69]
*163 la_iena[6]
*164 la_iena[70]
*165 la_iena[71]
*166 la_iena[72]
*167 la_iena[73]
*168 la_iena[74]
*169 la_iena[75]
*170 la_iena[76]
*171 la_iena[77]
*172 la_iena[78]
*173 la_iena[79]
*174 la_iena[7]
*175 la_iena[80]
*176 la_iena[81]
*177 la_iena[82]
*178 la_iena[83]
*179 la_iena[84]
*180 la_iena[85]
*181 la_iena[86]
*182 la_iena[87]
*183 la_iena[88]
*184 la_iena[89]
*185 la_iena[8]
*186 la_iena[90]
*187 la_iena[91]
*188 la_iena[92]
*189 la_iena[93]
*190 la_iena[94]
*191 la_iena[95]
*192 la_iena[96]
*193 la_iena[97]
*194 la_iena[98]
*195 la_iena[99]
*196 la_iena[9]
*197 la_input[0]
*198 la_input[100]
*199 la_input[101]
*200 la_input[102]
*201 la_input[103]
*202 la_input[104]
*203 la_input[105]
*204 la_input[106]
*205 la_input[107]
*206 la_input[108]
*207 la_input[109]
*208 la_input[10]
*209 la_input[110]
*210 la_input[111]
*211 la_input[112]
*212 la_input[113]
*213 la_input[114]
*214 la_input[115]
*215 la_input[116]
*216 la_input[117]
*217 la_input[118]
*218 la_input[119]
*219 la_input[11]
*220 la_input[120]
*221 la_input[121]
*222 la_input[122]
*223 la_input[123]
*224 la_input[124]
*225 la_input[125]
*226 la_input[126]
*227 la_input[127]
*228 la_input[12]
*229 la_input[13]
*230 la_input[14]
*231 la_input[15]
*232 la_input[16]
*233 la_input[17]
*234 la_input[18]
*235 la_input[19]
*236 la_input[1]
*237 la_input[20]
*238 la_input[21]
*239 la_input[22]
*240 la_input[23]
*241 la_input[24]
*242 la_input[25]
*243 la_input[26]
*244 la_input[27]
*245 la_input[28]
*246 la_input[29]
*247 la_input[2]
*248 la_input[30]
*249 la_input[31]
*250 la_input[32]
*251 la_input[33]
*252 la_input[34]
*253 la_input[35]
*254 la_input[36]
*255 la_input[37]
*256 la_input[38]
*257 la_input[39]
*258 la_input[3]
*259 la_input[40]
*260 la_input[41]
*261 la_input[42]
*262 la_input[43]
*263 la_input[44]
*264 la_input[45]
*265 la_input[46]
*266 la_input[47]
*267 la_input[48]
*268 la_input[49]
*269 la_input[4]
*270 la_input[50]
*271 la_input[51]
*272 la_input[52]
*273 la_input[53]
*274 la_input[54]
*275 la_input[55]
*276 la_input[56]
*277 la_input[57]
*278 la_input[58]
*279 la_input[59]
*280 la_input[5]
*281 la_input[60]
*282 la_input[61]
*283 la_input[62]
*284 la_input[63]
*285 la_input[64]
*286 la_input[65]
*287 la_input[66]
*288 la_input[67]
*289 la_input[68]
*290 la_input[69]
*291 la_input[6]
*292 la_input[70]
*293 la_input[71]
*294 la_input[72]
*295 la_input[73]
*296 la_input[74]
*297 la_input[75]
*298 la_input[76]
*299 la_input[77]
*300 la_input[78]
*301 la_input[79]
*302 la_input[7]
*303 la_input[80]
*304 la_input[81]
*305 la_input[82]
*306 la_input[83]
*307 la_input[84]
*308 la_input[85]
*309 la_input[86]
*310 la_input[87]
*311 la_input[88]
*312 la_input[89]
*313 la_input[8]
*314 la_input[90]
*315 la_input[91]
*316 la_input[92]
*317 la_input[93]
*318 la_input[94]
*319 la_input[95]
*320 la_input[96]
*321 la_input[97]
*322 la_input[98]
*323 la_input[99]
*324 la_input[9]
*325 la_oenb[0]
*326 la_oenb[100]
*327 la_oenb[101]
*328 la_oenb[102]
*329 la_oenb[103]
*330 la_oenb[104]
*331 la_oenb[105]
*332 la_oenb[106]
*333 la_oenb[107]
*334 la_oenb[108]
*335 la_oenb[109]
*336 la_oenb[10]
*337 la_oenb[110]
*338 la_oenb[111]
*339 la_oenb[112]
*340 la_oenb[113]
*341 la_oenb[114]
*342 la_oenb[115]
*343 la_oenb[116]
*344 la_oenb[117]
*345 la_oenb[118]
*346 la_oenb[119]
*347 la_oenb[11]
*348 la_oenb[120]
*349 la_oenb[121]
*350 la_oenb[122]
*351 la_oenb[123]
*352 la_oenb[124]
*353 la_oenb[125]
*354 la_oenb[126]
*355 la_oenb[127]
*356 la_oenb[12]
*357 la_oenb[13]
*358 la_oenb[14]
*359 la_oenb[15]
*360 la_oenb[16]
*361 la_oenb[17]
*362 la_oenb[18]
*363 la_oenb[19]
*364 la_oenb[1]
*365 la_oenb[20]
*366 la_oenb[21]
*367 la_oenb[22]
*368 la_oenb[23]
*369 la_oenb[24]
*370 la_oenb[25]
*371 la_oenb[26]
*372 la_oenb[27]
*373 la_oenb[28]
*374 la_oenb[29]
*375 la_oenb[2]
*376 la_oenb[30]
*377 la_oenb[31]
*378 la_oenb[32]
*379 la_oenb[33]
*380 la_oenb[34]
*381 la_oenb[35]
*382 la_oenb[36]
*383 la_oenb[37]
*384 la_oenb[38]
*385 la_oenb[39]
*386 la_oenb[3]
*387 la_oenb[40]
*388 la_oenb[41]
*389 la_oenb[42]
*390 la_oenb[43]
*391 la_oenb[44]
*392 la_oenb[45]
*393 la_oenb[46]
*394 la_oenb[47]
*395 la_oenb[48]
*396 la_oenb[49]
*397 la_oenb[4]
*398 la_oenb[50]
*399 la_oenb[51]
*400 la_oenb[52]
*401 la_oenb[53]
*402 la_oenb[54]
*403 la_oenb[55]
*404 la_oenb[56]
*405 la_oenb[57]
*406 la_oenb[58]
*407 la_oenb[59]
*408 la_oenb[5]
*409 la_oenb[60]
*410 la_oenb[61]
*411 la_oenb[62]
*412 la_oenb[63]
*413 la_oenb[64]
*414 la_oenb[65]
*415 la_oenb[66]
*416 la_oenb[67]
*417 la_oenb[68]
*418 la_oenb[69]
*419 la_oenb[6]
*420 la_oenb[70]
*421 la_oenb[71]
*422 la_oenb[72]
*423 la_oenb[73]
*424 la_oenb[74]
*425 la_oenb[75]
*426 la_oenb[76]
*427 la_oenb[77]
*428 la_oenb[78]
*429 la_oenb[79]
*430 la_oenb[7]
*431 la_oenb[80]
*432 la_oenb[81]
*433 la_oenb[82]
*434 la_oenb[83]
*435 la_oenb[84]
*436 la_oenb[85]
*437 la_oenb[86]
*438 la_oenb[87]
*439 la_oenb[88]
*440 la_oenb[89]
*441 la_oenb[8]
*442 la_oenb[90]
*443 la_oenb[91]
*444 la_oenb[92]
*445 la_oenb[93]
*446 la_oenb[94]
*447 la_oenb[95]
*448 la_oenb[96]
*449 la_oenb[97]
*450 la_oenb[98]
*451 la_oenb[99]
*452 la_oenb[9]
*453 la_output[0]
*454 la_output[100]
*455 la_output[101]
*456 la_output[102]
*457 la_output[103]
*458 la_output[104]
*459 la_output[105]
*460 la_output[106]
*461 la_output[107]
*462 la_output[108]
*463 la_output[109]
*464 la_output[10]
*465 la_output[110]
*466 la_output[111]
*467 la_output[112]
*468 la_output[113]
*469 la_output[114]
*470 la_output[115]
*471 la_output[116]
*472 la_output[117]
*473 la_output[118]
*474 la_output[119]
*475 la_output[11]
*476 la_output[120]
*477 la_output[121]
*478 la_output[122]
*479 la_output[123]
*480 la_output[124]
*481 la_output[125]
*482 la_output[126]
*483 la_output[127]
*484 la_output[12]
*485 la_output[13]
*486 la_output[14]
*487 la_output[15]
*488 la_output[16]
*489 la_output[17]
*490 la_output[18]
*491 la_output[19]
*492 la_output[1]
*493 la_output[20]
*494 la_output[21]
*495 la_output[22]
*496 la_output[23]
*497 la_output[24]
*498 la_output[25]
*499 la_output[26]
*500 la_output[27]
*501 la_output[28]
*502 la_output[29]
*503 la_output[2]
*504 la_output[30]
*505 la_output[31]
*506 la_output[32]
*507 la_output[33]
*508 la_output[34]
*509 la_output[35]
*510 la_output[36]
*511 la_output[37]
*512 la_output[38]
*513 la_output[39]
*514 la_output[3]
*515 la_output[40]
*516 la_output[41]
*517 la_output[42]
*518 la_output[43]
*519 la_output[44]
*520 la_output[45]
*521 la_output[46]
*522 la_output[47]
*523 la_output[48]
*524 la_output[49]
*525 la_output[4]
*526 la_output[50]
*527 la_output[51]
*528 la_output[52]
*529 la_output[53]
*530 la_output[54]
*531 la_output[55]
*532 la_output[56]
*533 la_output[57]
*534 la_output[58]
*535 la_output[59]
*536 la_output[5]
*537 la_output[60]
*538 la_output[61]
*539 la_output[62]
*540 la_output[63]
*541 la_output[64]
*542 la_output[65]
*543 la_output[66]
*544 la_output[67]
*545 la_output[68]
*546 la_output[69]
*547 la_output[6]
*548 la_output[70]
*549 la_output[71]
*550 la_output[72]
*551 la_output[73]
*552 la_output[74]
*553 la_output[75]
*554 la_output[76]
*555 la_output[77]
*556 la_output[78]
*557 la_output[79]
*558 la_output[7]
*559 la_output[80]
*560 la_output[81]
*561 la_output[82]
*562 la_output[83]
*563 la_output[84]
*564 la_output[85]
*565 la_output[86]
*566 la_output[87]
*567 la_output[88]
*568 la_output[89]
*569 la_output[8]
*570 la_output[90]
*571 la_output[91]
*572 la_output[92]
*573 la_output[93]
*574 la_output[94]
*575 la_output[95]
*576 la_output[96]
*577 la_output[97]
*578 la_output[98]
*579 la_output[99]
*580 la_output[9]
*581 mprj_ack_i
*582 mprj_adr_o[0]
*583 mprj_adr_o[10]
*584 mprj_adr_o[11]
*585 mprj_adr_o[12]
*586 mprj_adr_o[13]
*587 mprj_adr_o[14]
*588 mprj_adr_o[15]
*589 mprj_adr_o[16]
*590 mprj_adr_o[17]
*591 mprj_adr_o[18]
*592 mprj_adr_o[19]
*593 mprj_adr_o[1]
*594 mprj_adr_o[20]
*595 mprj_adr_o[21]
*596 mprj_adr_o[22]
*597 mprj_adr_o[23]
*598 mprj_adr_o[24]
*599 mprj_adr_o[25]
*600 mprj_adr_o[26]
*601 mprj_adr_o[27]
*602 mprj_adr_o[28]
*603 mprj_adr_o[29]
*604 mprj_adr_o[2]
*605 mprj_adr_o[30]
*606 mprj_adr_o[31]
*607 mprj_adr_o[3]
*608 mprj_adr_o[4]
*609 mprj_adr_o[5]
*610 mprj_adr_o[6]
*611 mprj_adr_o[7]
*612 mprj_adr_o[8]
*613 mprj_adr_o[9]
*614 mprj_cyc_o
*615 mprj_dat_i[0]
*616 mprj_dat_i[10]
*617 mprj_dat_i[11]
*618 mprj_dat_i[12]
*619 mprj_dat_i[13]
*620 mprj_dat_i[14]
*621 mprj_dat_i[15]
*622 mprj_dat_i[16]
*623 mprj_dat_i[17]
*624 mprj_dat_i[18]
*625 mprj_dat_i[19]
*626 mprj_dat_i[1]
*627 mprj_dat_i[20]
*628 mprj_dat_i[21]
*629 mprj_dat_i[22]
*630 mprj_dat_i[23]
*631 mprj_dat_i[24]
*632 mprj_dat_i[25]
*633 mprj_dat_i[26]
*634 mprj_dat_i[27]
*635 mprj_dat_i[28]
*636 mprj_dat_i[29]
*637 mprj_dat_i[2]
*638 mprj_dat_i[30]
*639 mprj_dat_i[31]
*640 mprj_dat_i[3]
*641 mprj_dat_i[4]
*642 mprj_dat_i[5]
*643 mprj_dat_i[6]
*644 mprj_dat_i[7]
*645 mprj_dat_i[8]
*646 mprj_dat_i[9]
*647 mprj_dat_o[0]
*648 mprj_dat_o[10]
*649 mprj_dat_o[11]
*650 mprj_dat_o[12]
*651 mprj_dat_o[13]
*652 mprj_dat_o[14]
*653 mprj_dat_o[15]
*654 mprj_dat_o[16]
*655 mprj_dat_o[17]
*656 mprj_dat_o[18]
*657 mprj_dat_o[19]
*658 mprj_dat_o[1]
*659 mprj_dat_o[20]
*660 mprj_dat_o[21]
*661 mprj_dat_o[22]
*662 mprj_dat_o[23]
*663 mprj_dat_o[24]
*664 mprj_dat_o[25]
*665 mprj_dat_o[26]
*666 mprj_dat_o[27]
*667 mprj_dat_o[28]
*668 mprj_dat_o[29]
*669 mprj_dat_o[2]
*670 mprj_dat_o[30]
*671 mprj_dat_o[31]
*672 mprj_dat_o[3]
*673 mprj_dat_o[4]
*674 mprj_dat_o[5]
*675 mprj_dat_o[6]
*676 mprj_dat_o[7]
*677 mprj_dat_o[8]
*678 mprj_dat_o[9]
*679 mprj_sel_o[0]
*680 mprj_sel_o[1]
*681 mprj_sel_o[2]
*682 mprj_sel_o[3]
*683 mprj_stb_o
*684 mprj_wb_iena
*685 mprj_we_o
*686 qspi_enabled
*687 ser_rx
*688 ser_tx
*689 spi_csb
*690 spi_enabled
*691 spi_sck
*692 spi_sdi
*693 spi_sdo
*694 spi_sdoenb
*695 sram_ro_addr[0]
*696 sram_ro_addr[1]
*697 sram_ro_addr[2]
*698 sram_ro_addr[3]
*699 sram_ro_addr[4]
*700 sram_ro_addr[5]
*701 sram_ro_addr[6]
*702 sram_ro_addr[7]
*703 sram_ro_clk
*704 sram_ro_csb
*705 sram_ro_data[0]
*706 sram_ro_data[10]
*707 sram_ro_data[11]
*708 sram_ro_data[12]
*709 sram_ro_data[13]
*710 sram_ro_data[14]
*711 sram_ro_data[15]
*712 sram_ro_data[16]
*713 sram_ro_data[17]
*714 sram_ro_data[18]
*715 sram_ro_data[19]
*716 sram_ro_data[1]
*717 sram_ro_data[20]
*718 sram_ro_data[21]
*719 sram_ro_data[22]
*720 sram_ro_data[23]
*721 sram_ro_data[24]
*722 sram_ro_data[25]
*723 sram_ro_data[26]
*724 sram_ro_data[27]
*725 sram_ro_data[28]
*726 sram_ro_data[29]
*727 sram_ro_data[2]
*728 sram_ro_data[30]
*729 sram_ro_data[31]
*730 sram_ro_data[3]
*731 sram_ro_data[4]
*732 sram_ro_data[5]
*733 sram_ro_data[6]
*734 sram_ro_data[7]
*735 sram_ro_data[8]
*736 sram_ro_data[9]
*737 trap
*738 uart_enabled
*739 user_irq_ena[0]
*740 user_irq_ena[1]
*741 user_irq_ena[2]
*742 mgmt_soc_dff_A\[0\]
*743 mgmt_soc_dff_A\[1\]
*744 mgmt_soc_dff_A\[2\]
*745 mgmt_soc_dff_A\[3\]
*746 mgmt_soc_dff_A\[4\]
*747 mgmt_soc_dff_A\[5\]
*748 mgmt_soc_dff_A\[6\]
*749 mgmt_soc_dff_A\[7\]
*750 mgmt_soc_dff_Di\[0\]
*751 mgmt_soc_dff_Di\[10\]
*752 mgmt_soc_dff_Di\[11\]
*753 mgmt_soc_dff_Di\[12\]
*754 mgmt_soc_dff_Di\[13\]
*755 mgmt_soc_dff_Di\[14\]
*756 mgmt_soc_dff_Di\[15\]
*757 mgmt_soc_dff_Di\[16\]
*758 mgmt_soc_dff_Di\[17\]
*759 mgmt_soc_dff_Di\[18\]
*760 mgmt_soc_dff_Di\[19\]
*761 mgmt_soc_dff_Di\[1\]
*762 mgmt_soc_dff_Di\[20\]
*763 mgmt_soc_dff_Di\[21\]
*764 mgmt_soc_dff_Di\[22\]
*765 mgmt_soc_dff_Di\[23\]
*766 mgmt_soc_dff_Di\[24\]
*767 mgmt_soc_dff_Di\[25\]
*768 mgmt_soc_dff_Di\[26\]
*769 mgmt_soc_dff_Di\[27\]
*770 mgmt_soc_dff_Di\[28\]
*771 mgmt_soc_dff_Di\[29\]
*772 mgmt_soc_dff_Di\[2\]
*773 mgmt_soc_dff_Di\[30\]
*774 mgmt_soc_dff_Di\[31\]
*775 mgmt_soc_dff_Di\[3\]
*776 mgmt_soc_dff_Di\[4\]
*777 mgmt_soc_dff_Di\[5\]
*778 mgmt_soc_dff_Di\[6\]
*779 mgmt_soc_dff_Di\[7\]
*780 mgmt_soc_dff_Di\[8\]
*781 mgmt_soc_dff_Di\[9\]
*782 mgmt_soc_dff_Do\[0\]
*783 mgmt_soc_dff_Do\[10\]
*784 mgmt_soc_dff_Do\[11\]
*785 mgmt_soc_dff_Do\[12\]
*786 mgmt_soc_dff_Do\[13\]
*787 mgmt_soc_dff_Do\[14\]
*788 mgmt_soc_dff_Do\[15\]
*789 mgmt_soc_dff_Do\[16\]
*790 mgmt_soc_dff_Do\[17\]
*791 mgmt_soc_dff_Do\[18\]
*792 mgmt_soc_dff_Do\[19\]
*793 mgmt_soc_dff_Do\[1\]
*794 mgmt_soc_dff_Do\[20\]
*795 mgmt_soc_dff_Do\[21\]
*796 mgmt_soc_dff_Do\[22\]
*797 mgmt_soc_dff_Do\[23\]
*798 mgmt_soc_dff_Do\[24\]
*799 mgmt_soc_dff_Do\[25\]
*800 mgmt_soc_dff_Do\[26\]
*801 mgmt_soc_dff_Do\[27\]
*802 mgmt_soc_dff_Do\[28\]
*803 mgmt_soc_dff_Do\[29\]
*804 mgmt_soc_dff_Do\[2\]
*805 mgmt_soc_dff_Do\[30\]
*806 mgmt_soc_dff_Do\[31\]
*807 mgmt_soc_dff_Do\[3\]
*808 mgmt_soc_dff_Do\[4\]
*809 mgmt_soc_dff_Do\[5\]
*810 mgmt_soc_dff_Do\[6\]
*811 mgmt_soc_dff_Do\[7\]
*812 mgmt_soc_dff_Do\[8\]
*813 mgmt_soc_dff_Do\[9\]
*814 mgmt_soc_dff_EN
*815 mgmt_soc_dff_WE\[0\]
*816 mgmt_soc_dff_WE\[1\]
*817 mgmt_soc_dff_WE\[2\]
*818 mgmt_soc_dff_WE\[3\]
*819 DFFRAM
*820 core

*PORTS
core_clk I
core_rstn I
debug_in I
debug_mode O
debug_oeb O
debug_out O
flash_clk O
flash_csb O
flash_io0_di I
flash_io0_do O
flash_io0_oeb O
flash_io1_di I
flash_io1_do O
flash_io1_oeb O
flash_io2_di I
flash_io2_do O
flash_io2_oeb O
flash_io3_di I
flash_io3_do O
flash_io3_oeb O
gpio_in_pad I
gpio_inenb_pad O
gpio_mode0_pad O
gpio_mode1_pad O
gpio_out_pad O
gpio_outenb_pad O
hk_ack_i I
hk_dat_i[0] I
hk_dat_i[10] I
hk_dat_i[11] I
hk_dat_i[12] I
hk_dat_i[13] I
hk_dat_i[14] I
hk_dat_i[15] I
hk_dat_i[16] I
hk_dat_i[17] I
hk_dat_i[18] I
hk_dat_i[19] I
hk_dat_i[1] I
hk_dat_i[20] I
hk_dat_i[21] I
hk_dat_i[22] I
hk_dat_i[23] I
hk_dat_i[24] I
hk_dat_i[25] I
hk_dat_i[26] I
hk_dat_i[27] I
hk_dat_i[28] I
hk_dat_i[29] I
hk_dat_i[2] I
hk_dat_i[30] I
hk_dat_i[31] I
hk_dat_i[3] I
hk_dat_i[4] I
hk_dat_i[5] I
hk_dat_i[6] I
hk_dat_i[7] I
hk_dat_i[8] I
hk_dat_i[9] I
hk_stb_o O
irq[0] I
irq[1] I
irq[2] I
irq[3] I
irq[4] I
irq[5] I
la_iena[0] O
la_iena[100] O
la_iena[101] O
la_iena[102] O
la_iena[103] O
la_iena[104] O
la_iena[105] O
la_iena[106] O
la_iena[107] O
la_iena[108] O
la_iena[109] O
la_iena[10] O
la_iena[110] O
la_iena[111] O
la_iena[112] O
la_iena[113] O
la_iena[114] O
la_iena[115] O
la_iena[116] O
la_iena[117] O
la_iena[118] O
la_iena[119] O
la_iena[11] O
la_iena[120] O
la_iena[121] O
la_iena[122] O
la_iena[123] O
la_iena[124] O
la_iena[125] O
la_iena[126] O
la_iena[127] O
la_iena[12] O
la_iena[13] O
la_iena[14] O
la_iena[15] O
la_iena[16] O
la_iena[17] O
la_iena[18] O
la_iena[19] O
la_iena[1] O
la_iena[20] O
la_iena[21] O
la_iena[22] O
la_iena[23] O
la_iena[24] O
la_iena[25] O
la_iena[26] O
la_iena[27] O
la_iena[28] O
la_iena[29] O
la_iena[2] O
la_iena[30] O
la_iena[31] O
la_iena[32] O
la_iena[33] O
la_iena[34] O
la_iena[35] O
la_iena[36] O
la_iena[37] O
la_iena[38] O
la_iena[39] O
la_iena[3] O
la_iena[40] O
la_iena[41] O
la_iena[42] O
la_iena[43] O
la_iena[44] O
la_iena[45] O
la_iena[46] O
la_iena[47] O
la_iena[48] O
la_iena[49] O
la_iena[4] O
la_iena[50] O
la_iena[51] O
la_iena[52] O
la_iena[53] O
la_iena[54] O
la_iena[55] O
la_iena[56] O
la_iena[57] O
la_iena[58] O
la_iena[59] O
la_iena[5] O
la_iena[60] O
la_iena[61] O
la_iena[62] O
la_iena[63] O
la_iena[64] O
la_iena[65] O
la_iena[66] O
la_iena[67] O
la_iena[68] O
la_iena[69] O
la_iena[6] O
la_iena[70] O
la_iena[71] O
la_iena[72] O
la_iena[73] O
la_iena[74] O
la_iena[75] O
la_iena[76] O
la_iena[77] O
la_iena[78] O
la_iena[79] O
la_iena[7] O
la_iena[80] O
la_iena[81] O
la_iena[82] O
la_iena[83] O
la_iena[84] O
la_iena[85] O
la_iena[86] O
la_iena[87] O
la_iena[88] O
la_iena[89] O
la_iena[8] O
la_iena[90] O
la_iena[91] O
la_iena[92] O
la_iena[93] O
la_iena[94] O
la_iena[95] O
la_iena[96] O
la_iena[97] O
la_iena[98] O
la_iena[99] O
la_iena[9] O
la_input[0] I
la_input[100] I
la_input[101] I
la_input[102] I
la_input[103] I
la_input[104] I
la_input[105] I
la_input[106] I
la_input[107] I
la_input[108] I
la_input[109] I
la_input[10] I
la_input[110] I
la_input[111] I
la_input[112] I
la_input[113] I
la_input[114] I
la_input[115] I
la_input[116] I
la_input[117] I
la_input[118] I
la_input[119] I
la_input[11] I
la_input[120] I
la_input[121] I
la_input[122] I
la_input[123] I
la_input[124] I
la_input[125] I
la_input[126] I
la_input[127] I
la_input[12] I
la_input[13] I
la_input[14] I
la_input[15] I
la_input[16] I
la_input[17] I
la_input[18] I
la_input[19] I
la_input[1] I
la_input[20] I
la_input[21] I
la_input[22] I
la_input[23] I
la_input[24] I
la_input[25] I
la_input[26] I
la_input[27] I
la_input[28] I
la_input[29] I
la_input[2] I
la_input[30] I
la_input[31] I
la_input[32] I
la_input[33] I
la_input[34] I
la_input[35] I
la_input[36] I
la_input[37] I
la_input[38] I
la_input[39] I
la_input[3] I
la_input[40] I
la_input[41] I
la_input[42] I
la_input[43] I
la_input[44] I
la_input[45] I
la_input[46] I
la_input[47] I
la_input[48] I
la_input[49] I
la_input[4] I
la_input[50] I
la_input[51] I
la_input[52] I
la_input[53] I
la_input[54] I
la_input[55] I
la_input[56] I
la_input[57] I
la_input[58] I
la_input[59] I
la_input[5] I
la_input[60] I
la_input[61] I
la_input[62] I
la_input[63] I
la_input[64] I
la_input[65] I
la_input[66] I
la_input[67] I
la_input[68] I
la_input[69] I
la_input[6] I
la_input[70] I
la_input[71] I
la_input[72] I
la_input[73] I
la_input[74] I
la_input[75] I
la_input[76] I
la_input[77] I
la_input[78] I
la_input[79] I
la_input[7] I
la_input[80] I
la_input[81] I
la_input[82] I
la_input[83] I
la_input[84] I
la_input[85] I
la_input[86] I
la_input[87] I
la_input[88] I
la_input[89] I
la_input[8] I
la_input[90] I
la_input[91] I
la_input[92] I
la_input[93] I
la_input[94] I
la_input[95] I
la_input[96] I
la_input[97] I
la_input[98] I
la_input[99] I
la_input[9] I
la_oenb[0] O
la_oenb[100] O
la_oenb[101] O
la_oenb[102] O
la_oenb[103] O
la_oenb[104] O
la_oenb[105] O
la_oenb[106] O
la_oenb[107] O
la_oenb[108] O
la_oenb[109] O
la_oenb[10] O
la_oenb[110] O
la_oenb[111] O
la_oenb[112] O
la_oenb[113] O
la_oenb[114] O
la_oenb[115] O
la_oenb[116] O
la_oenb[117] O
la_oenb[118] O
la_oenb[119] O
la_oenb[11] O
la_oenb[120] O
la_oenb[121] O
la_oenb[122] O
la_oenb[123] O
la_oenb[124] O
la_oenb[125] O
la_oenb[126] O
la_oenb[127] O
la_oenb[12] O
la_oenb[13] O
la_oenb[14] O
la_oenb[15] O
la_oenb[16] O
la_oenb[17] O
la_oenb[18] O
la_oenb[19] O
la_oenb[1] O
la_oenb[20] O
la_oenb[21] O
la_oenb[22] O
la_oenb[23] O
la_oenb[24] O
la_oenb[25] O
la_oenb[26] O
la_oenb[27] O
la_oenb[28] O
la_oenb[29] O
la_oenb[2] O
la_oenb[30] O
la_oenb[31] O
la_oenb[32] O
la_oenb[33] O
la_oenb[34] O
la_oenb[35] O
la_oenb[36] O
la_oenb[37] O
la_oenb[38] O
la_oenb[39] O
la_oenb[3] O
la_oenb[40] O
la_oenb[41] O
la_oenb[42] O
la_oenb[43] O
la_oenb[44] O
la_oenb[45] O
la_oenb[46] O
la_oenb[47] O
la_oenb[48] O
la_oenb[49] O
la_oenb[4] O
la_oenb[50] O
la_oenb[51] O
la_oenb[52] O
la_oenb[53] O
la_oenb[54] O
la_oenb[55] O
la_oenb[56] O
la_oenb[57] O
la_oenb[58] O
la_oenb[59] O
la_oenb[5] O
la_oenb[60] O
la_oenb[61] O
la_oenb[62] O
la_oenb[63] O
la_oenb[64] O
la_oenb[65] O
la_oenb[66] O
la_oenb[67] O
la_oenb[68] O
la_oenb[69] O
la_oenb[6] O
la_oenb[70] O
la_oenb[71] O
la_oenb[72] O
la_oenb[73] O
la_oenb[74] O
la_oenb[75] O
la_oenb[76] O
la_oenb[77] O
la_oenb[78] O
la_oenb[79] O
la_oenb[7] O
la_oenb[80] O
la_oenb[81] O
la_oenb[82] O
la_oenb[83] O
la_oenb[84] O
la_oenb[85] O
la_oenb[86] O
la_oenb[87] O
la_oenb[88] O
la_oenb[89] O
la_oenb[8] O
la_oenb[90] O
la_oenb[91] O
la_oenb[92] O
la_oenb[93] O
la_oenb[94] O
la_oenb[95] O
la_oenb[96] O
la_oenb[97] O
la_oenb[98] O
la_oenb[99] O
la_oenb[9] O
la_output[0] O
la_output[100] O
la_output[101] O
la_output[102] O
la_output[103] O
la_output[104] O
la_output[105] O
la_output[106] O
la_output[107] O
la_output[108] O
la_output[109] O
la_output[10] O
la_output[110] O
la_output[111] O
la_output[112] O
la_output[113] O
la_output[114] O
la_output[115] O
la_output[116] O
la_output[117] O
la_output[118] O
la_output[119] O
la_output[11] O
la_output[120] O
la_output[121] O
la_output[122] O
la_output[123] O
la_output[124] O
la_output[125] O
la_output[126] O
la_output[127] O
la_output[12] O
la_output[13] O
la_output[14] O
la_output[15] O
la_output[16] O
la_output[17] O
la_output[18] O
la_output[19] O
la_output[1] O
la_output[20] O
la_output[21] O
la_output[22] O
la_output[23] O
la_output[24] O
la_output[25] O
la_output[26] O
la_output[27] O
la_output[28] O
la_output[29] O
la_output[2] O
la_output[30] O
la_output[31] O
la_output[32] O
la_output[33] O
la_output[34] O
la_output[35] O
la_output[36] O
la_output[37] O
la_output[38] O
la_output[39] O
la_output[3] O
la_output[40] O
la_output[41] O
la_output[42] O
la_output[43] O
la_output[44] O
la_output[45] O
la_output[46] O
la_output[47] O
la_output[48] O
la_output[49] O
la_output[4] O
la_output[50] O
la_output[51] O
la_output[52] O
la_output[53] O
la_output[54] O
la_output[55] O
la_output[56] O
la_output[57] O
la_output[58] O
la_output[59] O
la_output[5] O
la_output[60] O
la_output[61] O
la_output[62] O
la_output[63] O
la_output[64] O
la_output[65] O
la_output[66] O
la_output[67] O
la_output[68] O
la_output[69] O
la_output[6] O
la_output[70] O
la_output[71] O
la_output[72] O
la_output[73] O
la_output[74] O
la_output[75] O
la_output[76] O
la_output[77] O
la_output[78] O
la_output[79] O
la_output[7] O
la_output[80] O
la_output[81] O
la_output[82] O
la_output[83] O
la_output[84] O
la_output[85] O
la_output[86] O
la_output[87] O
la_output[88] O
la_output[89] O
la_output[8] O
la_output[90] O
la_output[91] O
la_output[92] O
la_output[93] O
la_output[94] O
la_output[95] O
la_output[96] O
la_output[97] O
la_output[98] O
la_output[99] O
la_output[9] O
mprj_ack_i I
mprj_adr_o[0] O
mprj_adr_o[10] O
mprj_adr_o[11] O
mprj_adr_o[12] O
mprj_adr_o[13] O
mprj_adr_o[14] O
mprj_adr_o[15] O
mprj_adr_o[16] O
mprj_adr_o[17] O
mprj_adr_o[18] O
mprj_adr_o[19] O
mprj_adr_o[1] O
mprj_adr_o[20] O
mprj_adr_o[21] O
mprj_adr_o[22] O
mprj_adr_o[23] O
mprj_adr_o[24] O
mprj_adr_o[25] O
mprj_adr_o[26] O
mprj_adr_o[27] O
mprj_adr_o[28] O
mprj_adr_o[29] O
mprj_adr_o[2] O
mprj_adr_o[30] O
mprj_adr_o[31] O
mprj_adr_o[3] O
mprj_adr_o[4] O
mprj_adr_o[5] O
mprj_adr_o[6] O
mprj_adr_o[7] O
mprj_adr_o[8] O
mprj_adr_o[9] O
mprj_cyc_o O
mprj_dat_i[0] I
mprj_dat_i[10] I
mprj_dat_i[11] I
mprj_dat_i[12] I
mprj_dat_i[13] I
mprj_dat_i[14] I
mprj_dat_i[15] I
mprj_dat_i[16] I
mprj_dat_i[17] I
mprj_dat_i[18] I
mprj_dat_i[19] I
mprj_dat_i[1] I
mprj_dat_i[20] I
mprj_dat_i[21] I
mprj_dat_i[22] I
mprj_dat_i[23] I
mprj_dat_i[24] I
mprj_dat_i[25] I
mprj_dat_i[26] I
mprj_dat_i[27] I
mprj_dat_i[28] I
mprj_dat_i[29] I
mprj_dat_i[2] I
mprj_dat_i[30] I
mprj_dat_i[31] I
mprj_dat_i[3] I
mprj_dat_i[4] I
mprj_dat_i[5] I
mprj_dat_i[6] I
mprj_dat_i[7] I
mprj_dat_i[8] I
mprj_dat_i[9] I
mprj_dat_o[0] O
mprj_dat_o[10] O
mprj_dat_o[11] O
mprj_dat_o[12] O
mprj_dat_o[13] O
mprj_dat_o[14] O
mprj_dat_o[15] O
mprj_dat_o[16] O
mprj_dat_o[17] O
mprj_dat_o[18] O
mprj_dat_o[19] O
mprj_dat_o[1] O
mprj_dat_o[20] O
mprj_dat_o[21] O
mprj_dat_o[22] O
mprj_dat_o[23] O
mprj_dat_o[24] O
mprj_dat_o[25] O
mprj_dat_o[26] O
mprj_dat_o[27] O
mprj_dat_o[28] O
mprj_dat_o[29] O
mprj_dat_o[2] O
mprj_dat_o[30] O
mprj_dat_o[31] O
mprj_dat_o[3] O
mprj_dat_o[4] O
mprj_dat_o[5] O
mprj_dat_o[6] O
mprj_dat_o[7] O
mprj_dat_o[8] O
mprj_dat_o[9] O
mprj_sel_o[0] O
mprj_sel_o[1] O
mprj_sel_o[2] O
mprj_sel_o[3] O
mprj_stb_o O
mprj_wb_iena O
mprj_we_o O
qspi_enabled O
ser_rx I
ser_tx O
spi_csb O
spi_enabled O
spi_sck O
spi_sdi I
spi_sdo O
spi_sdoenb O
sram_ro_addr[0] I
sram_ro_addr[1] I
sram_ro_addr[2] I
sram_ro_addr[3] I
sram_ro_addr[4] I
sram_ro_addr[5] I
sram_ro_addr[6] I
sram_ro_addr[7] I
sram_ro_clk I
sram_ro_csb I
sram_ro_data[0] O
sram_ro_data[10] O
sram_ro_data[11] O
sram_ro_data[12] O
sram_ro_data[13] O
sram_ro_data[14] O
sram_ro_data[15] O
sram_ro_data[16] O
sram_ro_data[17] O
sram_ro_data[18] O
sram_ro_data[19] O
sram_ro_data[1] O
sram_ro_data[20] O
sram_ro_data[21] O
sram_ro_data[22] O
sram_ro_data[23] O
sram_ro_data[24] O
sram_ro_data[25] O
sram_ro_data[26] O
sram_ro_data[27] O
sram_ro_data[28] O
sram_ro_data[29] O
sram_ro_data[2] O
sram_ro_data[30] O
sram_ro_data[31] O
sram_ro_data[3] O
sram_ro_data[4] O
sram_ro_data[5] O
sram_ro_data[6] O
sram_ro_data[7] O
sram_ro_data[8] O
sram_ro_data[9] O
trap O
uart_enabled O
user_irq_ena[0] O
user_irq_ena[1] O
user_irq_ena[2] O

*D_NET *3 0.24342
*CONN
*P core_clk I
*I *820:core_clk I *D mgmt_core
*I *819:CLK I *D DFFRAM
*CAP
1 core_clk 0.000162564
2 *820:core_clk 0.000236337
3 *819:CLK 0.00020487
4 *3:20 0.0107566
5 *3:19 0.0105203
6 *3:8 0.0336982
7 *3:7 0.0334933
8 *3:5 0.000162564
9 *3:8 *4:13 0.00761959
10 *3:8 *4:18 0.0128075
11 *3:8 *23:83 0.000238082
12 *3:8 *24:10 0.052666
13 *3:8 *25:10 0.0139479
14 *3:8 *750:13 0.000261615
15 *3:8 *750:15 0.00243183
16 *3:8 *751:13 0.000244991
17 *3:8 *751:15 0.00219766
18 *3:8 *752:17 0.00202488
19 *3:8 *754:79 6.0308e-05
20 *3:8 *754:83 0.000685257
21 *3:8 *755:11 0.00189556
22 *3:8 *756:15 0.00239329
23 *3:8 *757:58 0.005703
24 *3:8 *762:23 0.00277759
25 *3:8 *764:47 0.00162922
26 *3:8 *765:28 0.000390726
27 *3:8 *769:59 0.00129568
28 *3:8 *772:11 0.0395778
29 *3:8 *775:11 0.000258685
30 *3:8 *781:24 0.000433185
31 *3:8 *781:29 0.00264516
*RES
1 core_clk *3:5 4.23802 
2 *3:5 *3:7 3.36879 
3 *3:7 *3:8 198.618 
4 *3:8 *819:CLK 7.6068 
5 *3:5 *3:19 4.5 
6 *3:19 *3:20 294.663 
7 *3:20 *820:core_clk 11.083 
*END

*D_NET *4 0.070205
*CONN
*P core_rstn I
*I *820:core_rstn I *D mgmt_core
*CAP
1 core_rstn 0.00130396
2 *820:core_rstn 0.000234799
3 *4:18 0.0163647
4 *4:16 0.0162248
5 *4:14 0.00161453
6 *4:13 0.00282359
7 *4:13 *819:Di[28] 0.00215124
8 *4:13 *819:Di[30] 2.91863e-05
9 *4:13 *23:83 0.000696635
10 *4:13 *750:15 0.000716747
11 *4:13 *753:41 0.00383614
12 *4:13 *762:20 1.53397e-05
13 *4:13 *763:19 0.00016058
14 *4:13 *767:32 4.15661e-05
15 *4:13 *770:36 9.12416e-06
16 *4:13 *781:29 0.000658944
17 *4:14 *819:Di[31] 0.00145607
18 *4:14 *773:13 0.00104911
19 *4:14 *776:11 0.000391009
20 *3:8 *4:13 0.00761959
21 *3:8 *4:18 0.0128075
*RES
1 core_rstn *4:13 28.0334 
2 *4:13 *4:14 53.1334 
3 *4:14 *4:16 2.62834 
4 *4:16 *4:18 451.893 
5 *4:18 *820:core_rstn 10.6677 
*END

*D_NET *5 0.00308689
*CONN
*P debug_in I
*I *820:debug_rx I *D mgmt_core
*CAP
1 debug_in 0.0015188
2 *820:debug_rx 0.0015188
3 *820:debug_rx debug_out 0
4 *820:debug_rx sram_ro_data[30] 0
5 *820:debug_rx sram_ro_data[31] 4.92851e-05
6 *820:debug_rx *7:12 0
*RES
1 debug_in *820:debug_rx 24.0195 
*END

*D_NET *6 0.00561218
*CONN
*P debug_mode O
*I *820:debug_mode O *D mgmt_core
*CAP
1 debug_mode 0.00208797
2 *820:debug_mode 0.00208797
3 debug_mode debug_out 0.000288992
4 debug_mode sram_ro_data[30] 0
5 debug_mode sram_ro_data[31] 0
6 debug_mode trap 0.000357133
7 debug_mode *820:user_irq[5] 4.47719e-05
8 debug_mode *7:12 0.000745352
*RES
1 *820:debug_mode debug_mode 49.8665 
*END

*D_NET *7 0.00583605
*CONN
*P debug_oeb O
*I *820:debug_oeb O *D mgmt_core
*CAP
1 debug_oeb 0.000756444
2 *820:debug_oeb 0.00120673
3 *7:12 0.00196317
4 *7:12 sram_ro_data[30] 5.27687e-05
5 *7:12 sram_ro_data[31] 0
6 *7:12 trap 0.000913986
7 *7:12 *820:user_irq[5] 0.0001976
8 debug_mode *7:12 0.000745352
9 *820:debug_rx *7:12 0
*RES
1 *820:debug_oeb *7:12 47.8802 
2 *7:12 debug_oeb 2.81683 
*END

*D_NET *8 0.00506981
*CONN
*P debug_out O
*I *820:debug_tx O *D mgmt_core
*CAP
1 debug_out 0.00196287
2 *820:debug_tx 0.00196287
3 debug_out trap 0