*SPEF "ieee 1481-1999"
*DESIGN "mgmt_core_wrapper"
*DATE "11:11:11 Fri 11 11, 1111"
*VENDOR "OpenRCX"
*PROGRAM "Parallel Extraction"
*VERSION "1.0"
*DESIGN_FLOW "NAME_SCOPE LOCAL" "PIN_CAP NONE"
*DIVIDER /
*DELIMITER :
*BUS_DELIMITER []
*T_UNIT 1 NS
*C_UNIT 1 PF
*R_UNIT 1 OHM
*L_UNIT 1 HENRY

*NAME_MAP
*3 core_clk
*4 core_rstn
*5 debug_in
*6 debug_mode
*7 debug_oeb
*8 debug_out
*9 flash_clk
*10 flash_csb
*11 flash_io0_di
*12 flash_io0_do
*13 flash_io0_oeb
*14 flash_io1_di
*15 flash_io1_do
*16 flash_io1_oeb
*17 flash_io2_di
*18 flash_io2_do
*19 flash_io2_oeb
*20 flash_io3_di
*21 flash_io3_do
*22 flash_io3_oeb
*23 gpio_in_pad
*24 gpio_inenb_pad
*25 gpio_mode0_pad
*26 gpio_mode1_pad
*27 gpio_out_pad
*28 gpio_outenb_pad
*29 hk_ack_i
*30 hk_cyc_o
*31 hk_dat_i[0]
*32 hk_dat_i[10]
*33 hk_dat_i[11]
*34 hk_dat_i[12]
*35 hk_dat_i[13]
*36 hk_dat_i[14]
*37 hk_dat_i[15]
*38 hk_dat_i[16]
*39 hk_dat_i[17]
*40 hk_dat_i[18]
*41 hk_dat_i[19]
*42 hk_dat_i[1]
*43 hk_dat_i[20]
*44 hk_dat_i[21]
*45 hk_dat_i[22]
*46 hk_dat_i[23]
*47 hk_dat_i[24]
*48 hk_dat_i[25]
*49 hk_dat_i[26]
*50 hk_dat_i[27]
*51 hk_dat_i[28]
*52 hk_dat_i[29]
*53 hk_dat_i[2]
*54 hk_dat_i[30]
*55 hk_dat_i[31]
*56 hk_dat_i[3]
*57 hk_dat_i[4]
*58 hk_dat_i[5]
*59 hk_dat_i[6]
*60 hk_dat_i[7]
*61 hk_dat_i[8]
*62 hk_dat_i[9]
*63 hk_stb_o
*64 irq[0]
*65 irq[1]
*66 irq[2]
*67 irq[3]
*68 irq[4]
*69 irq[5]
*70 la_iena[0]
*71 la_iena[100]
*72 la_iena[101]
*73 la_iena[102]
*74 la_iena[103]
*75 la_iena[104]
*76 la_iena[105]
*77 la_iena[106]
*78 la_iena[107]
*79 la_iena[108]
*80 la_iena[109]
*81 la_iena[10]
*82 la_iena[110]
*83 la_iena[111]
*84 la_iena[112]
*85 la_iena[113]
*86 la_iena[114]
*87 la_iena[115]
*88 la_iena[116]
*89 la_iena[117]
*90 la_iena[118]
*91 la_iena[119]
*92 la_iena[11]
*93 la_iena[120]
*94 la_iena[121]
*95 la_iena[122]
*96 la_iena[123]
*97 la_iena[124]
*98 la_iena[125]
*99 la_iena[126]
*100 la_iena[127]
*101 la_iena[12]
*102 la_iena[13]
*103 la_iena[14]
*104 la_iena[15]
*105 la_iena[16]
*106 la_iena[17]
*107 la_iena[18]
*108 la_iena[19]
*109 la_iena[1]
*110 la_iena[20]
*111 la_iena[21]
*112 la_iena[22]
*113 la_iena[23]
*114 la_iena[24]
*115 la_iena[25]
*116 la_iena[26]
*117 la_iena[27]
*118 la_iena[28]
*119 la_iena[29]
*120 la_iena[2]
*121 la_iena[30]
*122 la_iena[31]
*123 la_iena[32]
*124 la_iena[33]
*125 la_iena[34]
*126 la_iena[35]
*127 la_iena[36]
*128 la_iena[37]
*129 la_iena[38]
*130 la_iena[39]
*131 la_iena[3]
*132 la_iena[40]
*133 la_iena[41]
*134 la_iena[42]
*135 la_iena[43]
*136 la_iena[44]
*137 la_iena[45]
*138 la_iena[46]
*139 la_iena[47]
*140 la_iena[48]
*141 la_iena[49]
*142 la_iena[4]
*143 la_iena[50]
*144 la_iena[51]
*145 la_iena[52]
*146 la_iena[53]
*147 la_iena[54]
*148 la_iena[55]
*149 la_iena[56]
*150 la_iena[57]
*151 la_iena[58]
*152 la_iena[59]
*153 la_iena[5]
*154 la_iena[60]
*155 la_iena[61]
*156 la_iena[62]
*157 la_iena[63]
*158 la_iena[64]
*159 la_iena[65]
*160 la_iena[66]
*161 la_iena[67]
*162 la_iena[68]
*163 la_iena[69]
*164 la_iena[6]
*165 la_iena[70]
*166 la_iena[71]
*167 la_iena[72]
*168 la_iena[73]
*169 la_iena[74]
*170 la_iena[75]
*171 la_iena[76]
*172 la_iena[77]
*173 la_iena[78]
*174 la_iena[79]
*175 la_iena[7]
*176 la_iena[80]
*177 la_iena[81]
*178 la_iena[82]
*179 la_iena[83]
*180 la_iena[84]
*181 la_iena[85]
*182 la_iena[86]
*183 la_iena[87]
*184 la_iena[88]
*185 la_iena[89]
*186 la_iena[8]
*187 la_iena[90]
*188 la_iena[91]
*189 la_iena[92]
*190 la_iena[93]
*191 la_iena[94]
*192 la_iena[95]
*193 la_iena[96]
*194 la_iena[97]
*195 la_iena[98]
*196 la_iena[99]
*197 la_iena[9]
*198 la_input[0]
*199 la_input[100]
*200 la_input[101]
*201 la_input[102]
*202 la_input[103]
*203 la_input[104]
*204 la_input[105]
*205 la_input[106]
*206 la_input[107]
*207 la_input[108]
*208 la_input[109]
*209 la_input[10]
*210 la_input[110]
*211 la_input[111]
*212 la_input[112]
*213 la_input[113]
*214 la_input[114]
*215 la_input[115]
*216 la_input[116]
*217 la_input[117]
*218 la_input[118]
*219 la_input[119]
*220 la_input[11]
*221 la_input[120]
*222 la_input[121]
*223 la_input[122]
*224 la_input[123]
*225 la_input[124]
*226 la_input[125]
*227 la_input[126]
*228 la_input[127]
*229 la_input[12]
*230 la_input[13]
*231 la_input[14]
*232 la_input[15]
*233 la_input[16]
*234 la_input[17]
*235 la_input[18]
*236 la_input[19]
*237 la_input[1]
*238 la_input[20]
*239 la_input[21]
*240 la_input[22]
*241 la_input[23]
*242 la_input[24]
*243 la_input[25]
*244 la_input[26]
*245 la_input[27]
*246 la_input[28]
*247 la_input[29]
*248 la_input[2]
*249 la_input[30]
*250 la_input[31]
*251 la_input[32]
*252 la_input[33]
*253 la_input[34]
*254 la_input[35]
*255 la_input[36]
*256 la_input[37]
*257 la_input[38]
*258 la_input[39]
*259 la_input[3]
*260 la_input[40]
*261 la_input[41]
*262 la_input[42]
*263 la_input[43]
*264 la_input[44]
*265 la_input[45]
*266 la_input[46]
*267 la_input[47]
*268 la_input[48]
*269 la_input[49]
*270 la_input[4]
*271 la_input[50]
*272 la_input[51]
*273 la_input[52]
*274 la_input[53]
*275 la_input[54]
*276 la_input[55]
*277 la_input[56]
*278 la_input[57]
*279 la_input[58]
*280 la_input[59]
*281 la_input[5]
*282 la_input[60]
*283 la_input[61]
*284 la_input[62]
*285 la_input[63]
*286 la_input[64]
*287 la_input[65]
*288 la_input[66]
*289 la_input[67]
*290 la_input[68]
*291 la_input[69]
*292 la_input[6]
*293 la_input[70]
*294 la_input[71]
*295 la_input[72]
*296 la_input[73]
*297 la_input[74]
*298 la_input[75]
*299 la_input[76]
*300 la_input[77]
*301 la_input[78]
*302 la_input[79]
*303 la_input[7]
*304 la_input[80]
*305 la_input[81]
*306 la_input[82]
*307 la_input[83]
*308 la_input[84]
*309 la_input[85]
*310 la_input[86]
*311 la_input[87]
*312 la_input[88]
*313 la_input[89]
*314 la_input[8]
*315 la_input[90]
*316 la_input[91]
*317 la_input[92]
*318 la_input[93]
*319 la_input[94]
*320 la_input[95]
*321 la_input[96]
*322 la_input[97]
*323 la_input[98]
*324 la_input[99]
*325 la_input[9]
*326 la_oenb[0]
*327 la_oenb[100]
*328 la_oenb[101]
*329 la_oenb[102]
*330 la_oenb[103]
*331 la_oenb[104]
*332 la_oenb[105]
*333 la_oenb[106]
*334 la_oenb[107]
*335 la_oenb[108]
*336 la_oenb[109]
*337 la_oenb[10]
*338 la_oenb[110]
*339 la_oenb[111]
*340 la_oenb[112]
*341 la_oenb[113]
*342 la_oenb[114]
*343 la_oenb[115]
*344 la_oenb[116]
*345 la_oenb[117]
*346 la_oenb[118]
*347 la_oenb[119]
*348 la_oenb[11]
*349 la_oenb[120]
*350 la_oenb[121]
*351 la_oenb[122]
*352 la_oenb[123]
*353 la_oenb[124]
*354 la_oenb[125]
*355 la_oenb[126]
*356 la_oenb[127]
*357 la_oenb[12]
*358 la_oenb[13]
*359 la_oenb[14]
*360 la_oenb[15]
*361 la_oenb[16]
*362 la_oenb[17]
*363 la_oenb[18]
*364 la_oenb[19]
*365 la_oenb[1]
*366 la_oenb[20]
*367 la_oenb[21]
*368 la_oenb[22]
*369 la_oenb[23]
*370 la_oenb[24]
*371 la_oenb[25]
*372 la_oenb[26]
*373 la_oenb[27]
*374 la_oenb[28]
*375 la_oenb[29]
*376 la_oenb[2]
*377 la_oenb[30]
*378 la_oenb[31]
*379 la_oenb[32]
*380 la_oenb[33]
*381 la_oenb[34]
*382 la_oenb[35]
*383 la_oenb[36]
*384 la_oenb[37]
*385 la_oenb[38]
*386 la_oenb[39]
*387 la_oenb[3]
*388 la_oenb[40]
*389 la_oenb[41]
*390 la_oenb[42]
*391 la_oenb[43]
*392 la_oenb[44]
*393 la_oenb[45]
*394 la_oenb[46]
*395 la_oenb[47]
*396 la_oenb[48]
*397 la_oenb[49]
*398 la_oenb[4]
*399 la_oenb[50]
*400 la_oenb[51]
*401 la_oenb[52]
*402 la_oenb[53]
*403 la_oenb[54]
*404 la_oenb[55]
*405 la_oenb[56]
*406 la_oenb[57]
*407 la_oenb[58]
*408 la_oenb[59]
*409 la_oenb[5]
*410 la_oenb[60]
*411 la_oenb[61]
*412 la_oenb[62]
*413 la_oenb[63]
*414 la_oenb[64]
*415 la_oenb[65]
*416 la_oenb[66]
*417 la_oenb[67]
*418 la_oenb[68]
*419 la_oenb[69]
*420 la_oenb[6]
*421 la_oenb[70]
*422 la_oenb[71]
*423 la_oenb[72]
*424 la_oenb[73]
*425 la_oenb[74]
*426 la_oenb[75]
*427 la_oenb[76]
*428 la_oenb[77]
*429 la_oenb[78]
*430 la_oenb[79]
*431 la_oenb[7]
*432 la_oenb[80]
*433 la_oenb[81]
*434 la_oenb[82]
*435 la_oenb[83]
*436 la_oenb[84]
*437 la_oenb[85]
*438 la_oenb[86]
*439 la_oenb[87]
*440 la_oenb[88]
*441 la_oenb[89]
*442 la_oenb[8]
*443 la_oenb[90]
*444 la_oenb[91]
*445 la_oenb[92]
*446 la_oenb[93]
*447 la_oenb[94]
*448 la_oenb[95]
*449 la_oenb[96]
*450 la_oenb[97]
*451 la_oenb[98]
*452 la_oenb[99]
*453 la_oenb[9]
*454 la_output[0]
*455 la_output[100]
*456 la_output[101]
*457 la_output[102]
*458 la_output[103]
*459 la_output[104]
*460 la_output[105]
*461 la_output[106]
*462 la_output[107]
*463 la_output[108]
*464 la_output[109]
*465 la_output[10]
*466 la_output[110]
*467 la_output[111]
*468 la_output[112]
*469 la_output[113]
*470 la_output[114]
*471 la_output[115]
*472 la_output[116]
*473 la_output[117]
*474 la_output[118]
*475 la_output[119]
*476 la_output[11]
*477 la_output[120]
*478 la_output[121]
*479 la_output[122]
*480 la_output[123]
*481 la_output[124]
*482 la_output[125]
*483 la_output[126]
*484 la_output[127]
*485 la_output[12]
*486 la_output[13]
*487 la_output[14]
*488 la_output[15]
*489 la_output[16]
*490 la_output[17]
*491 la_output[18]
*492 la_output[19]
*493 la_output[1]
*494 la_output[20]
*495 la_output[21]
*496 la_output[22]
*497 la_output[23]
*498 la_output[24]
*499 la_output[25]
*500 la_output[26]
*501 la_output[27]
*502 la_output[28]
*503 la_output[29]
*504 la_output[2]
*505 la_output[30]
*506 la_output[31]
*507 la_output[32]
*508 la_output[33]
*509 la_output[34]
*510 la_output[35]
*511 la_output[36]
*512 la_output[37]
*513 la_output[38]
*514 la_output[39]
*515 la_output[3]
*516 la_output[40]
*517 la_output[41]
*518 la_output[42]
*519 la_output[43]
*520 la_output[44]
*521 la_output[45]
*522 la_output[46]
*523 la_output[47]
*524 la_output[48]
*525 la_output[49]
*526 la_output[4]
*527 la_output[50]
*528 la_output[51]
*529 la_output[52]
*530 la_output[53]
*531 la_output[54]
*532 la_output[55]
*533 la_output[56]
*534 la_output[57]
*535 la_output[58]
*536 la_output[59]
*537 la_output[5]
*538 la_output[60]
*539 la_output[61]
*540 la_output[62]
*541 la_output[63]
*542 la_output[64]
*543 la_output[65]
*544 la_output[66]
*545 la_output[67]
*546 la_output[68]
*547 la_output[69]
*548 la_output[6]
*549 la_output[70]
*550 la_output[71]
*551 la_output[72]
*552 la_output[73]
*553 la_output[74]
*554 la_output[75]
*555 la_output[76]
*556 la_output[77]
*557 la_output[78]
*558 la_output[79]
*559 la_output[7]
*560 la_output[80]
*561 la_output[81]
*562 la_output[82]
*563 la_output[83]
*564 la_output[84]
*565 la_output[85]
*566 la_output[86]
*567 la_output[87]
*568 la_output[88]
*569 la_output[89]
*570 la_output[8]
*571 la_output[90]
*572 la_output[91]
*573 la_output[92]
*574 la_output[93]
*575 la_output[94]
*576 la_output[95]
*577 la_output[96]
*578 la_output[97]
*579 la_output[98]
*580 la_output[99]
*581 la_output[9]
*582 mprj_ack_i
*583 mprj_adr_o[0]
*584 mprj_adr_o[10]
*585 mprj_adr_o[11]
*586 mprj_adr_o[12]
*587 mprj_adr_o[13]
*588 mprj_adr_o[14]
*589 mprj_adr_o[15]
*590 mprj_adr_o[16]
*591 mprj_adr_o[17]
*592 mprj_adr_o[18]
*593 mprj_adr_o[19]
*594 mprj_adr_o[1]
*595 mprj_adr_o[20]
*596 mprj_adr_o[21]
*597 mprj_adr_o[22]
*598 mprj_adr_o[23]
*599 mprj_adr_o[24]
*600 mprj_adr_o[25]
*601 mprj_adr_o[26]
*602 mprj_adr_o[27]
*603 mprj_adr_o[28]
*604 mprj_adr_o[29]
*605 mprj_adr_o[2]
*606 mprj_adr_o[30]
*607 mprj_adr_o[31]
*608 mprj_adr_o[3]
*609 mprj_adr_o[4]
*610 mprj_adr_o[5]
*611 mprj_adr_o[6]
*612 mprj_adr_o[7]
*613 mprj_adr_o[8]
*614 mprj_adr_o[9]
*615 mprj_cyc_o
*616 mprj_dat_i[0]
*617 mprj_dat_i[10]
*618 mprj_dat_i[11]
*619 mprj_dat_i[12]
*620 mprj_dat_i[13]
*621 mprj_dat_i[14]
*622 mprj_dat_i[15]
*623 mprj_dat_i[16]
*624 mprj_dat_i[17]
*625 mprj_dat_i[18]
*626 mprj_dat_i[19]
*627 mprj_dat_i[1]
*628 mprj_dat_i[20]
*629 mprj_dat_i[21]
*630 mprj_dat_i[22]
*631 mprj_dat_i[23]
*632 mprj_dat_i[24]
*633 mprj_dat_i[25]
*634 mprj_dat_i[26]
*635 mprj_dat_i[27]
*636 mprj_dat_i[28]
*637 mprj_dat_i[29]
*638 mprj_dat_i[2]
*639 mprj_dat_i[30]
*640 mprj_dat_i[31]
*641 mprj_dat_i[3]
*642 mprj_dat_i[4]
*643 mprj_dat_i[5]
*644 mprj_dat_i[6]
*645 mprj_dat_i[7]
*646 mprj_dat_i[8]
*647 mprj_dat_i[9]
*648 mprj_dat_o[0]
*649 mprj_dat_o[10]
*650 mprj_dat_o[11]
*651 mprj_dat_o[12]
*652 mprj_dat_o[13]
*653 mprj_dat_o[14]
*654 mprj_dat_o[15]
*655 mprj_dat_o[16]
*656 mprj_dat_o[17]
*657 mprj_dat_o[18]
*658 mprj_dat_o[19]
*659 mprj_dat_o[1]
*660 mprj_dat_o[20]
*661 mprj_dat_o[21]
*662 mprj_dat_o[22]
*663 mprj_dat_o[23]
*664 mprj_dat_o[24]
*665 mprj_dat_o[25]
*666 mprj_dat_o[26]
*667 mprj_dat_o[27]
*668 mprj_dat_o[28]
*669 mprj_dat_o[29]
*670 mprj_dat_o[2]
*671 mprj_dat_o[30]
*672 mprj_dat_o[31]
*673 mprj_dat_o[3]
*674 mprj_dat_o[4]
*675 mprj_dat_o[5]
*676 mprj_dat_o[6]
*677 mprj_dat_o[7]
*678 mprj_dat_o[8]
*679 mprj_dat_o[9]
*680 mprj_sel_o[0]
*681 mprj_sel_o[1]
*682 mprj_sel_o[2]
*683 mprj_sel_o[3]
*684 mprj_stb_o
*685 mprj_wb_iena
*686 mprj_we_o
*687 qspi_enabled
*688 ser_rx
*689 ser_tx
*690 spi_csb
*691 spi_enabled
*692 spi_sck
*693 spi_sdi
*694 spi_sdo
*695 spi_sdoenb
*696 sram_ro_addr[0]
*697 sram_ro_addr[1]
*698 sram_ro_addr[2]
*699 sram_ro_addr[3]
*700 sram_ro_addr[4]
*701 sram_ro_addr[5]
*702 sram_ro_addr[6]
*703 sram_ro_addr[7]
*704 sram_ro_clk
*705 sram_ro_csb
*706 sram_ro_data[0]
*707 sram_ro_data[10]
*708 sram_ro_data[11]
*709 sram_ro_data[12]
*710 sram_ro_data[13]
*711 sram_ro_data[14]
*712 sram_ro_data[15]
*713 sram_ro_data[16]
*714 sram_ro_data[17]
*715 sram_ro_data[18]
*716 sram_ro_data[19]
*717 sram_ro_data[1]
*718 sram_ro_data[20]
*719 sram_ro_data[21]
*720 sram_ro_data[22]
*721 sram_ro_data[23]
*722 sram_ro_data[24]
*723 sram_ro_data[25]
*724 sram_ro_data[26]
*725 sram_ro_data[27]
*726 sram_ro_data[28]
*727 sram_ro_data[29]
*728 sram_ro_data[2]
*729 sram_ro_data[30]
*730 sram_ro_data[31]
*731 sram_ro_data[3]
*732 sram_ro_data[4]
*733 sram_ro_data[5]
*734 sram_ro_data[6]
*735 sram_ro_data[7]
*736 sram_ro_data[8]
*737 sram_ro_data[9]
*738 trap
*739 uart_enabled
*740 user_irq_ena[0]
*741 user_irq_ena[1]
*742 user_irq_ena[2]
*743 mgmt_soc_dff_A\[0\]
*744 mgmt_soc_dff_A\[1\]
*745 mgmt_soc_dff_A\[2\]
*746 mgmt_soc_dff_A\[3\]
*747 mgmt_soc_dff_A\[4\]
*748 mgmt_soc_dff_A\[5\]
*749 mgmt_soc_dff_A\[6\]
*750 mgmt_soc_dff_A\[7\]
*751 mgmt_soc_dff_Di\[0\]
*752 mgmt_soc_dff_Di\[10\]
*753 mgmt_soc_dff_Di\[11\]
*754 mgmt_soc_dff_Di\[12\]
*755 mgmt_soc_dff_Di\[13\]
*756 mgmt_soc_dff_Di\[14\]
*757 mgmt_soc_dff_Di\[15\]
*758 mgmt_soc_dff_Di\[16\]
*759 mgmt_soc_dff_Di\[17\]
*760 mgmt_soc_dff_Di\[18\]
*761 mgmt_soc_dff_Di\[19\]
*762 mgmt_soc_dff_Di\[1\]
*763 mgmt_soc_dff_Di\[20\]
*764 mgmt_soc_dff_Di\[21\]
*765 mgmt_soc_dff_Di\[22\]
*766 mgmt_soc_dff_Di\[23\]
*767 mgmt_soc_dff_Di\[24\]
*768 mgmt_soc_dff_Di\[25\]
*769 mgmt_soc_dff_Di\[26\]
*770 mgmt_soc_dff_Di\[27\]
*771 mgmt_soc_dff_Di\[28\]
*772 mgmt_soc_dff_Di\[29\]
*773 mgmt_soc_dff_Di\[2\]
*774 mgmt_soc_dff_Di\[30\]
*775 mgmt_soc_dff_Di\[31\]
*776 mgmt_soc_dff_Di\[3\]
*777 mgmt_soc_dff_Di\[4\]
*778 mgmt_soc_dff_Di\[5\]
*779 mgmt_soc_dff_Di\[6\]
*780 mgmt_soc_dff_Di\[7\]
*781 mgmt_soc_dff_Di\[8\]
*782 mgmt_soc_dff_Di\[9\]
*783 mgmt_soc_dff_Do\[0\]
*784 mgmt_soc_dff_Do\[10\]
*785 mgmt_soc_dff_Do\[11\]
*786 mgmt_soc_dff_Do\[12\]
*787 mgmt_soc_dff_Do\[13\]
*788 mgmt_soc_dff_Do\[14\]
*789 mgmt_soc_dff_Do\[15\]
*790 mgmt_soc_dff_Do\[16\]
*791 mgmt_soc_dff_Do\[17\]
*792 mgmt_soc_dff_Do\[18\]
*793 mgmt_soc_dff_Do\[19\]
*794 mgmt_soc_dff_Do\[1\]
*795 mgmt_soc_dff_Do\[20\]
*796 mgmt_soc_dff_Do\[21\]
*797 mgmt_soc_dff_Do\[22\]
*798 mgmt_soc_dff_Do\[23\]
*799 mgmt_soc_dff_Do\[24\]
*800 mgmt_soc_dff_Do\[25\]
*801 mgmt_soc_dff_Do\[26\]
*802 mgmt_soc_dff_Do\[27\]
*803 mgmt_soc_dff_Do\[28\]
*804 mgmt_soc_dff_Do\[29\]
*805 mgmt_soc_dff_Do\[2\]
*806 mgmt_soc_dff_Do\[30\]
*807 mgmt_soc_dff_Do\[31\]
*808 mgmt_soc_dff_Do\[3\]
*809 mgmt_soc_dff_Do\[4\]
*810 mgmt_soc_dff_Do\[5\]
*811 mgmt_soc_dff_Do\[6\]
*812 mgmt_soc_dff_Do\[7\]
*813 mgmt_soc_dff_Do\[8\]
*814 mgmt_soc_dff_Do\[9\]
*815 mgmt_soc_dff_EN
*816 mgmt_soc_dff_WE\[0\]
*817 mgmt_soc_dff_WE\[1\]
*818 mgmt_soc_dff_WE\[2\]
*819 mgmt_soc_dff_WE\[3\]
*820 no_connect1
*821 no_connect2
*822 no_connect3\[0\]
*823 no_connect3\[1\]
*824 no_connect3\[2\]
*825 no_connect3\[3\]
*826 no_connect3\[4\]
*827 no_connect3\[5\]
*828 no_connect3\[6\]
*829 no_connect3\[7\]
*830 DFFRAM_0
*831 core

*PORTS
core_clk I
core_rstn I
debug_in I
debug_mode O
debug_oeb O
debug_out O
flash_clk O
flash_csb O
flash_io0_di I
flash_io0_do O
flash_io0_oeb O
flash_io1_di I
flash_io1_do O
flash_io1_oeb O
flash_io2_di I
flash_io2_do O
flash_io2_oeb O
flash_io3_di I
flash_io3_do O
flash_io3_oeb O
gpio_in_pad I
gpio_inenb_pad O
gpio_mode0_pad O
gpio_mode1_pad O
gpio_out_pad O
gpio_outenb_pad O
hk_ack_i I
hk_cyc_o O
hk_dat_i[0] I
hk_dat_i[10] I
hk_dat_i[11] I
hk_dat_i[12] I
hk_dat_i[13] I
hk_dat_i[14] I
hk_dat_i[15] I
hk_dat_i[16] I
hk_dat_i[17] I
hk_dat_i[18] I
hk_dat_i[19] I
hk_dat_i[1] I
hk_dat_i[20] I
hk_dat_i[21] I
hk_dat_i[22] I
hk_dat_i[23] I
hk_dat_i[24] I
hk_dat_i[25] I
hk_dat_i[26] I
hk_dat_i[27] I
hk_dat_i[28] I
hk_dat_i[29] I
hk_dat_i[2] I
hk_dat_i[30] I
hk_dat_i[31] I
hk_dat_i[3] I
hk_dat_i[4] I
hk_dat_i[5] I
hk_dat_i[6] I
hk_dat_i[7] I
hk_dat_i[8] I
hk_dat_i[9] I
hk_stb_o O
irq[0] I
irq[1] I
irq[2] I
irq[3] I
irq[4] I
irq[5] I
la_iena[0] O
la_iena[100] O
la_iena[101] O
la_iena[102] O
la_iena[103] O
la_iena[104] O
la_iena[105] O
la_iena[106] O
la_iena[107] O
la_iena[108] O
la_iena[109] O
la_iena[10] O
la_iena[110] O
la_iena[111] O
la_iena[112] O
la_iena[113] O
la_iena[114] O
la_iena[115] O
la_iena[116] O
la_iena[117] O
la_iena[118] O
la_iena[119] O
la_iena[11] O
la_iena[120] O
la_iena[121] O
la_iena[122] O
la_iena[123] O
la_iena[124] O
la_iena[125] O
la_iena[126] O
la_iena[127] O
la_iena[12] O
la_iena[13] O
la_iena[14] O
la_iena[15] O
la_iena[16] O
la_iena[17] O
la_iena[18] O
la_iena[19] O
la_iena[1] O
la_iena[20] O
la_iena[21] O
la_iena[22] O
la_iena[23] O
la_iena[24] O
la_iena[25] O
la_iena[26] O
la_iena[27] O
la_iena[28] O
la_iena[29] O
la_iena[2] O
la_iena[30] O
la_iena[31] O
la_iena[32] O
la_iena[33] O
la_iena[34] O
la_iena[35] O
la_iena[36] O
la_iena[37] O
la_iena[38] O
la_iena[39] O
la_iena[3] O
la_iena[40] O
la_iena[41] O
la_iena[42] O
la_iena[43] O
la_iena[44] O
la_iena[45] O
la_iena[46] O
la_iena[47] O
la_iena[48] O
la_iena[49] O
la_iena[4] O
la_iena[50] O
la_iena[51] O
la_iena[52] O
la_iena[53] O
la_iena[54] O
la_iena[55] O
la_iena[56] O
la_iena[57] O
la_iena[58] O
la_iena[59] O
la_iena[5] O
la_iena[60] O
la_iena[61] O
la_iena[62] O
la_iena[63] O
la_iena[64] O
la_iena[65] O
la_iena[66] O
la_iena[67] O
la_iena[68] O
la_iena[69] O
la_iena[6] O
la_iena[70] O
la_iena[71] O
la_iena[72] O
la_iena[73] O
la_iena[74] O
la_iena[75] O
la_iena[76] O
la_iena[77] O
la_iena[78] O
la_iena[79] O
la_iena[7] O
la_iena[80] O
la_iena[81] O
la_iena[82] O
la_iena[83] O
la_iena[84] O
la_iena[85] O
la_iena[86] O
la_iena[87] O
la_iena[88] O
la_iena[89] O
la_iena[8] O
la_iena[90] O
la_iena[91] O
la_iena[92] O
la_iena[93] O
la_iena[94] O
la_iena[95] O
la_iena[96] O
la_iena[97] O
la_iena[98] O
la_iena[99] O
la_iena[9] O
la_input[0] I
la_input[100] I
la_input[101] I
la_input[102] I
la_input[103] I
la_input[104] I
la_input[105] I
la_input[106] I
la_input[107] I
la_input[108] I
la_input[109] I
la_input[10] I
la_input[110] I
la_input[111] I
la_input[112] I
la_input[113] I
la_input[114] I
la_input[115] I
la_input[116] I
la_input[117] I
la_input[118] I
la_input[119] I
la_input[11] I
la_input[120] I
la_input[121] I
la_input[122] I
la_input[123] I
la_input[124] I
la_input[125] I
la_input[126] I
la_input[127] I
la_input[12] I
la_input[13] I
la_input[14] I
la_input[15] I
la_input[16] I
la_input[17] I
la_input[18] I
la_input[19] I
la_input[1] I
la_input[20] I
la_input[21] I
la_input[22] I
la_input[23] I
la_input[24] I
la_input[25] I
la_input[26] I
la_input[27] I
la_input[28] I
la_input[29] I
la_input[2] I
la_input[30] I
la_input[31] I
la_input[32] I
la_input[33] I
la_input[34] I
la_input[35] I
la_input[36] I
la_input[37] I
la_input[38] I
la_input[39] I
la_input[3] I
la_input[40] I
la_input[41] I
la_input[42] I
la_input[43] I
la_input[44] I
la_input[45] I
la_input[46] I
la_input[47] I
la_input[48] I
la_input[49] I
la_input[4] I
la_input[50] I
la_input[51] I
la_input[52] I
la_input[53] I
la_input[54] I
la_input[55] I
la_input[56] I
la_input[57] I
la_input[58] I
la_input[59] I
la_input[5] I
la_input[60] I
la_input[61] I
la_input[62] I
la_input[63] I
la_input[64] I
la_input[65] I
la_input[66] I
la_input[67] I
la_input[68] I
la_input[69] I
la_input[6] I
la_input[70] I
la_input[71] I
la_input[72] I
la_input[73] I
la_input[74] I
la_input[75] I
la_input[76] I
la_input[77] I
la_input[78] I
la_input[79] I
la_input[7] I
la_input[80] I
la_input[81] I
la_input[82] I
la_input[83] I
la_input[84] I
la_input[85] I
la_input[86] I
la_input[87] I
la_input[88] I
la_input[89] I
la_input[8] I
la_input[90] I
la_input[91] I
la_input[92] I
la_input[93] I
la_input[94] I
la_input[95] I
la_input[96] I
la_input[97] I
la_input[98] I
la_input[99] I
la_input[9] I
la_oenb[0] O
la_oenb[100] O
la_oenb[101] O
la_oenb[102] O
la_oenb[103] O
la_oenb[104] O
la_oenb[105] O
la_oenb[106] O
la_oenb[107] O
la_oenb[108] O
la_oenb[109] O
la_oenb[10] O
la_oenb[110] O
la_oenb[111] O
la_oenb[112] O
la_oenb[113] O
la_oenb[114] O
la_oenb[115] O
la_oenb[116] O
la_oenb[117] O
la_oenb[118] O
la_oenb[119] O
la_oenb[11] O
la_oenb[120] O
la_oenb[121] O
la_oenb[122] O
la_oenb[123] O
la_oenb[124] O
la_oenb[125] O
la_oenb[126] O
la_oenb[127] O
la_oenb[12] O
la_oenb[13] O
la_oenb[14] O
la_oenb[15] O
la_oenb[16] O
la_oenb[17] O
la_oenb[18] O
la_oenb[19] O
la_oenb[1] O
la_oenb[20] O
la_oenb[21] O
la_oenb[22] O
la_oenb[23] O
la_oenb[24] O
la_oenb[25] O
la_oenb[26] O
la_oenb[27] O
la_oenb[28] O
la_oenb[29] O
la_oenb[2] O
la_oenb[30] O
la_oenb[31] O
la_oenb[32] O
la_oenb[33] O
la_oenb[34] O
la_oenb[35] O
la_oenb[36] O
la_oenb[37] O
la_oenb[38] O
la_oenb[39] O
la_oenb[3] O
la_oenb[40] O
la_oenb[41] O
la_oenb[42] O
la_oenb[43] O
la_oenb[44] O
la_oenb[45] O
la_oenb[46] O
la_oenb[47] O
la_oenb[48] O
la_oenb[49] O
la_oenb[4] O
la_oenb[50] O
la_oenb[51] O
la_oenb[52] O
la_oenb[53] O
la_oenb[54] O
la_oenb[55] O
la_oenb[56] O
la_oenb[57] O
la_oenb[58] O
la_oenb[59] O
la_oenb[5] O
la_oenb[60] O
la_oenb[61] O
la_oenb[62] O
la_oenb[63] O
la_oenb[64] O
la_oenb[65] O
la_oenb[66] O
la_oenb[67] O
la_oenb[68] O
la_oenb[69] O
la_oenb[6] O
la_oenb[70] O
la_oenb[71] O
la_oenb[72] O
la_oenb[73] O
la_oenb[74] O
la_oenb[75] O
la_oenb[76] O
la_oenb[77] O
la_oenb[78] O
la_oenb[79] O
la_oenb[7] O
la_oenb[80] O
la_oenb[81] O
la_oenb[82] O
la_oenb[83] O
la_oenb[84] O
la_oenb[85] O
la_oenb[86] O
la_oenb[87] O
la_oenb[88] O
la_oenb[89] O
la_oenb[8] O
la_oenb[90] O
la_oenb[91] O
la_oenb[92] O
la_oenb[93] O
la_oenb[94] O
la_oenb[95] O
la_oenb[96] O
la_oenb[97] O
la_oenb[98] O
la_oenb[99] O
la_oenb[9] O
la_output[0] O
la_output[100] O
la_output[101] O
la_output[102] O
la_output[103] O
la_output[104] O
la_output[105] O
la_output[106] O
la_output[107] O
la_output[108] O
la_output[109] O
la_output[10] O
la_output[110] O
la_output[111] O
la_output[112] O
la_output[113] O
la_output[114] O
la_output[115] O
la_output[116] O
la_output[117] O
la_output[118] O
la_output[119] O
la_output[11] O
la_output[120] O
la_output[121] O
la_output[122] O
la_output[123] O
la_output[124] O
la_output[125] O
la_output[126] O
la_output[127] O
la_output[12] O
la_output[13] O
la_output[14] O
la_output[15] O
la_output[16] O
la_output[17] O
la_output[18] O
la_output[19] O
la_output[1] O
la_output[20] O
la_output[21] O
la_output[22] O
la_output[23] O
la_output[24] O
la_output[25] O
la_output[26] O
la_output[27] O
la_output[28] O
la_output[29] O
la_output[2] O
la_output[30] O
la_output[31] O
la_output[32] O
la_output[33] O
la_output[34] O
la_output[35] O
la_output[36] O
la_output[37] O
la_output[38] O
la_output[39] O
la_output[3] O
la_output[40] O
la_output[41] O
la_output[42] O
la_output[43] O
la_output[44] O
la_output[45] O
la_output[46] O
la_output[47] O
la_output[48] O
la_output[49] O
la_output[4] O
la_output[50] O
la_output[51] O
la_output[52] O
la_output[53] O
la_output[54] O
la_output[55] O
la_output[56] O
la_output[57] O
la_output[58] O
la_output[59] O
la_output[5] O
la_output[60] O
la_output[61] O
la_output[62] O
la_output[63] O
la_output[64] O
la_output[65] O
la_output[66] O
la_output[67] O
la_output[68] O
la_output[69] O
la_output[6] O
la_output[70] O
la_output[71] O
la_output[72] O
la_output[73] O
la_output[74] O
la_output[75] O
la_output[76] O
la_output[77] O
la_output[78] O
la_output[79] O
la_output[7] O
la_output[80] O
la_output[81] O
la_output[82] O
la_output[83] O
la_output[84] O
la_output[85] O
la_output[86] O
la_output[87] O
la_output[88] O
la_output[89] O
la_output[8] O
la_output[90] O
la_output[91] O
la_output[92] O
la_output[93] O
la_output[94] O
la_output[95] O
la_output[96] O
la_output[97] O
la_output[98] O
la_output[99] O
la_output[9] O
mprj_ack_i I
mprj_adr_o[0] O
mprj_adr_o[10] O
mprj_adr_o[11] O
mprj_adr_o[12] O
mprj_adr_o[13] O
mprj_adr_o[14] O
mprj_adr_o[15] O
mprj_adr_o[16] O
mprj_adr_o[17] O
mprj_adr_o[18] O
mprj_adr_o[19] O
mprj_adr_o[1] O
mprj_adr_o[20] O
mprj_adr_o[21] O
mprj_adr_o[22] O
mprj_adr_o[23] O
mprj_adr_o[24] O
mprj_adr_o[25] O
mprj_adr_o[26] O
mprj_adr_o[27] O
mprj_adr_o[28] O
mprj_adr_o[29] O
mprj_adr_o[2] O
mprj_adr_o[30] O
mprj_adr_o[31] O
mprj_adr_o[3] O
mprj_adr_o[4] O
mprj_adr_o[5] O
mprj_adr_o[6] O
mprj_adr_o[7] O
mprj_adr_o[8] O
mprj_adr_o[9] O
mprj_cyc_o O
mprj_dat_i[0] I
mprj_dat_i[10] I
mprj_dat_i[11] I
mprj_dat_i[12] I
mprj_dat_i[13] I
mprj_dat_i[14] I
mprj_dat_i[15] I
mprj_dat_i[16] I
mprj_dat_i[17] I
mprj_dat_i[18] I
mprj_dat_i[19] I
mprj_dat_i[1] I
mprj_dat_i[20] I
mprj_dat_i[21] I
mprj_dat_i[22] I
mprj_dat_i[23] I
mprj_dat_i[24] I
mprj_dat_i[25] I
mprj_dat_i[26] I
mprj_dat_i[27] I
mprj_dat_i[28] I
mprj_dat_i[29] I
mprj_dat_i[2] I
mprj_dat_i[30] I
mprj_dat_i[31] I
mprj_dat_i[3] I
mprj_dat_i[4] I
mprj_dat_i[5] I
mprj_dat_i[6] I
mprj_dat_i[7] I
mprj_dat_i[8] I
mprj_dat_i[9] I
mprj_dat_o[0] O
mprj_dat_o[10] O
mprj_dat_o[11] O
mprj_dat_o[12] O
mprj_dat_o[13] O
mprj_dat_o[14] O
mprj_dat_o[15] O
mprj_dat_o[16] O
mprj_dat_o[17] O
mprj_dat_o[18] O
mprj_dat_o[19] O
mprj_dat_o[1] O
mprj_dat_o[20] O
mprj_dat_o[21] O
mprj_dat_o[22] O
mprj_dat_o[23] O
mprj_dat_o[24] O
mprj_dat_o[25] O
mprj_dat_o[26] O
mprj_dat_o[27] O
mprj_dat_o[28] O
mprj_dat_o[29] O
mprj_dat_o[2] O
mprj_dat_o[30] O
mprj_dat_o[31] O
mprj_dat_o[3] O
mprj_dat_o[4] O
mprj_dat_o[5] O
mprj_dat_o[6] O
mprj_dat_o[7] O
mprj_dat_o[8] O
mprj_dat_o[9] O
mprj_sel_o[0] O
mprj_sel_o[1] O
mprj_sel_o[2] O
mprj_sel_o[3] O
mprj_stb_o O
mprj_wb_iena O
mprj_we_o O
qspi_enabled O
ser_rx I
ser_tx O
spi_csb O
spi_enabled O
spi_sck O
spi_sdi I
spi_sdo O
spi_sdoenb O
sram_ro_addr[0] I
sram_ro_addr[1] I
sram_ro_addr[2] I
sram_ro_addr[3] I
sram_ro_addr[4] I
sram_ro_addr[5] I
sram_ro_addr[6] I
sram_ro_addr[7] I
sram_ro_clk I
sram_ro_csb I
sram_ro_data[0] O
sram_ro_data[10] O
sram_ro_data[11] O
sram_ro_data[12] O
sram_ro_data[13] O
sram_ro_data[14] O
sram_ro_data[15] O
sram_ro_data[16] O
sram_ro_data[17] O
sram_ro_data[18] O
sram_ro_data[19] O
sram_ro_data[1] O
sram_ro_data[20] O
sram_ro_data[21] O
sram_ro_data[22] O
sram_ro_data[23] O
sram_ro_data[24] O
sram_ro_data[25] O
sram_ro_data[26] O
sram_ro_data[27] O
sram_ro_data[28] O
sram_ro_data[29] O
sram_ro_data[2] O
sram_ro_data[30] O
sram_ro_data[31] O
sram_ro_data[3] O
sram_ro_data[4] O
sram_ro_data[5] O
sram_ro_data[6] O
sram_ro_data[7] O
sram_ro_data[8] O
sram_ro_data[9] O
trap O
uart_enabled O
user_irq_ena[0] O
user_irq_ena[1] O
user_irq_ena[2] O

*D_NET *3 0.165527
*CONN
*P core_clk I
*I *830:CLK I *D DFFRAM
*I *831:core_clk I *D mgmt_core
*CAP
1 core_clk 0.000146578
2 *830:CLK 0.00224508
3 *831:core_clk 0.000236337
4 *3:34 0.00402719
5 *3:32 0.0018466
6 *3:30 0.00104768
7 *3:28 0.00105107
8 *3:26 0.0394974
9 *3:24 0.0399588
10 *3:8 0.0107566
11 *3:7 0.0105203
12 *3:5 0.000675849
13 *830:CLK *830:Di[13] 0.00796202
14 *830:CLK *830:Di[16] 0.000123288
15 *830:CLK *23:34 0.000775752
16 *830:CLK *751:39 0.000110974
17 *830:CLK *752:43 0.000367707
18 *830:CLK *753:32 0.0100075
19 *830:CLK *753:33 0.000661843
20 *830:CLK *754:23 0.000947912
21 *830:CLK *754:39 0.000419767
22 *830:CLK *754:41 0.000390925
23 *830:CLK *755:33 0.000615511
24 *830:CLK *757:27 0.000718315
25 *830:CLK *759:33 0.000269007
26 *830:CLK *760:37 0.00896445
27 *830:CLK *761:34 7.84597e-06
28 *830:CLK *778:13 0.000884687
29 *3:26 *4:19 0.000242988
30 *3:26 *4:20 3.61993e-05
31 *3:26 *23:46 0.000360805
32 *3:26 *751:13 0.00554232
33 *3:26 *769:13 0
34 *3:26 *770:13 0
35 *3:26 *771:13 0
36 *3:26 *772:13 0
37 *3:26 *774:13 0
38 *3:26 *775:13 0.000253882
39 *3:30 *4:8 0.0045261
40 *3:30 *751:13 4.33618e-06
41 *3:30 *751:29 6.52174e-05
42 *3:30 *770:13 0.000119279
43 *3:30 *771:13 0.000359407
44 *3:30 *772:13 0.000490489
45 *3:30 *774:13 1.45089e-05
46 *3:34 *751:29 0.00827437
47 *3:34 *769:13 0
48 *3:34 *770:13 0
*RES
1 core_clk *3:5 4.03039 
2 *3:5 *3:7 4.5 
3 *3:7 *3:8 294.663 
4 *3:8 *831:core_clk 11.083 
5 *3:5 *3:24 18.971 
6 *3:24 *3:26 1131.56 
7 *3:26 *3:28 1.80849 
8 *3:28 *3:30 58.4022 
9 *3:30 *3:32 1.80849 
10 *3:32 *3:34 86.4097 
11 *3:34 *830:CLK 36.8975 
*END

*D_NET *4 0.0676196
*CONN
*P core_rstn I
*I *831:core_rstn I *D mgmt_core
*CAP
1 core_rstn 0.000551649
2 *831:core_rstn 0.00024489
3 *4:26 0.0141936
4 *4:25 0.0142655
5 *4:20 0.00131455
6 *4:19 0.00197795
7 *4:8 0.00146148
8 *4:7 0.00103292
9 *4:8 *751:13 0.000132285
10 *4:8 *751:27 0.0019416
11 *4:8 *751:29 0.00033922
12 *4:19 *751:13 0.000233973
13 *4:19 *762:18 0.000134027
14 *4:19 *778:13 0
15 *4:20 *23:46 0.00442286
16 *4:20 *760:19 3.62662e-06
17 *4:20 *761:19 0.000463416
18 *4:25 *23:51 0.000183466
19 *4:26 *23:52 0.0148289
20 *4:26 *24:10 0.00508833
21 *3:26 *4:19 0.000242988
22 *3:26 *4:20 3.61993e-05
23 *3:30 *4:8 0.0045261
*RES
1 core_rstn *4:7 16.0049 
2 *4:7 *4:8 47.3101 
3 *4:8 *4:19 21.757 
4 *4:19 *4:20 48.9739 
5 *4:20 *4:25 19.137 
6 *4:25 *4:26 456.053 
7 *4:26 *831:core_rstn 11.083 
*END

*D_NET *5 0.00427095
*CONN
*P debug_in I
*I *831:debug_in I *D mgmt_core
*CAP
1 debug_in 0.0018464
2 *831:debug_in 0.0018464
3 *831:debug_in debug_mode 0
4 *831:debug_in debug_oeb 0
5 *831:debug_in debug_out 3.57967e-05
6 *831:debug_in sram_ro_data[29] 0
7 *831:debug_in sram_ro_data[30] 0.000268003
8 *831:debug_in sram_ro_data[31] 0.000274346
*RES
1 debug_in *831:debug_in 33.7087 
*END
